data_crystal

_cell_length_a    28.40100
_cell_length_b    28.40100
_cell_length_c    28.40100
_cell_angle_alpha 90.00000
_cell_angle_beta  90.00000
_cell_angle_gamma 90.00000

_space_group_name_Hall 'P 1'
_space_group_name_H-M_alt  'P 1'

loop_
_symmetry_equiv_pos_as_xyz
'x,y,z' 

loop_
_atom_site_label
_atom_site_type_symbol
_atom_site_fract_x
_atom_site_fract_y
_atom_site_fract_z
C          C       0.58884   0.90473   0.03528 
C          C       0.55309   0.92861   0.01135 
C          C       0.77691   0.81243   0.15180 
C          C       0.70726   0.84893   0.11722 
H          H       0.73800   0.78820   0.08839 
O          O       0.67143   0.85456   0.08457 
H          H       0.54196   0.91468   0.97775 
C          C       0.74101   0.81373   0.11663 
H          H       0.39682   0.02023   0.12961 
C          C       0.41116   0.09527   0.03528 
C          C       0.44691   0.07139   0.01135 
C          C       0.22309   0.18757   0.15180 
C          C       0.29274   0.15107   0.11722 
H          H       0.26200   0.21180   0.08839 
O          O       0.32857   0.14544   0.08457 
H          H       0.45804   0.08532   0.97775 
C          C       0.25899   0.18627   0.11663 
H          H       0.60318   0.97977   0.12961 
C          C       0.41116   0.90473   0.96472 
C          C       0.44691   0.92861   0.98865 
C          C       0.22309   0.81243   0.84820 
C          C       0.29274   0.84893   0.88278 
H          H       0.26200   0.78820   0.91161 
O          O       0.32857   0.85456   0.91543 
H          H       0.45804   0.91468   0.02225 
C          C       0.25899   0.81373   0.88337 
H          H       0.60318   0.02023   0.87039 
C          C       0.58884   0.09527   0.96472 
C          C       0.55309   0.07139   0.98865 
C          C       0.77691   0.18757   0.84820 
C          C       0.70726   0.15107   0.88278 
H          H       0.73800   0.21180   0.91161 
O          O       0.67143   0.14544   0.91543 
H          H       0.54196   0.08532   0.02225 
C          C       0.74101   0.18627   0.88337 
H          H       0.39682   0.97977   0.87039 
C          C       0.03528   0.58884   0.90473 
C          C       0.01135   0.55309   0.92861 
C          C       0.15180   0.77691   0.81243 
C          C       0.11722   0.70726   0.84893 
H          H       0.08839   0.73800   0.78820 
O          O       0.08457   0.67143   0.85456 
H          H       0.97775   0.54196   0.91468 
C          C       0.11663   0.74101   0.81373 
H          H       0.12961   0.39682   0.02023 
C          C       0.03528   0.41116   0.09527 
C          C       0.01135   0.44691   0.07139 
C          C       0.15180   0.22309   0.18757 
C          C       0.11722   0.29274   0.15107 
H          H       0.08839   0.26200   0.21180 
O          O       0.08457   0.32857   0.14544 
H          H       0.97775   0.45804   0.08532 
C          C       0.11663   0.25899   0.18627 
H          H       0.12961   0.60318   0.97977 
C          C       0.96472   0.41116   0.90473 
C          C       0.98865   0.44691   0.92861 
C          C       0.84820   0.22309   0.81243 
C          C       0.88278   0.29274   0.84893 
H          H       0.91161   0.26200   0.78820 
O          O       0.91543   0.32857   0.85456 
H          H       0.02225   0.45804   0.91468 
C          C       0.88337   0.25899   0.81373 
H          H       0.87039   0.60318   0.02023 
C          C       0.96472   0.58884   0.09527 
C          C       0.98865   0.55309   0.07139 
C          C       0.84820   0.77691   0.18757 
C          C       0.88278   0.70726   0.15107 
H          H       0.91161   0.73800   0.21180 
O          O       0.91543   0.67143   0.14544 
H          H       0.02225   0.54196   0.08532 
C          C       0.88337   0.74101   0.18627 
H          H       0.87039   0.39682   0.97977 
C          C       0.90473   0.03528   0.58884 
C          C       0.92861   0.01135   0.55309 
C          C       0.81243   0.15180   0.77691 
C          C       0.84893   0.11722   0.70726 
H          H       0.78820   0.08839   0.73800 
O          O       0.85456   0.08457   0.67143 
H          H       0.91468   0.97775   0.54196 
C          C       0.81373   0.11663   0.74101 
H          H       0.02023   0.12961   0.39682 
C          C       0.09527   0.03528   0.41116 
C          C       0.07139   0.01135   0.44691 
C          C       0.18757   0.15180   0.22309 
C          C       0.15107   0.11722   0.29274 
H          H       0.21180   0.08839   0.26200 
O          O       0.14544   0.08457   0.32857 
H          H       0.08532   0.97775   0.45804 
C          C       0.18627   0.11663   0.25899 
H          H       0.97977   0.12961   0.60318 
C          C       0.90473   0.96472   0.41116 
C          C       0.92861   0.98865   0.44691 
C          C       0.81243   0.84820   0.22309 
C          C       0.84893   0.88278   0.29274 
H          H       0.78820   0.91161   0.26200 
O          O       0.85456   0.91543   0.32857 
H          H       0.91468   0.02225   0.45804 
C          C       0.81373   0.88337   0.25899 
H          H       0.02023   0.87039   0.60318 
C          C       0.09527   0.96472   0.58884 
C          C       0.07139   0.98865   0.55309 
C          C       0.18757   0.84820   0.77691 
C          C       0.15107   0.88278   0.70726 
H          H       0.21180   0.91161   0.73800 
O          O       0.14544   0.91543   0.67143 
H          H       0.08532   0.02225   0.54196 
C          C       0.18627   0.88337   0.74101 
H          H       0.97977   0.87039   0.39682 
C          C       0.90473   0.58884   0.03528 
C          C       0.92861   0.55309   0.01135 
C          C       0.81243   0.77691   0.15180 
C          C       0.84893   0.70726   0.11722 
H          H       0.78820   0.73800   0.08839 
O          O       0.85456   0.67143   0.08457 
H          H       0.91468   0.54196   0.97775 
C          C       0.81373   0.74101   0.11663 
H          H       0.02023   0.39682   0.12961 
C          C       0.09527   0.41116   0.03528 
C          C       0.07139   0.44691   0.01135 
C          C       0.18757   0.22309   0.15180 
C          C       0.15107   0.29274   0.11722 
H          H       0.21180   0.26200   0.08839 
O          O       0.14544   0.32857   0.08457 
H          H       0.08532   0.45804   0.97775 
C          C       0.18627   0.25899   0.11663 
H          H       0.97977   0.60318   0.12961 
C          C       0.90473   0.41116   0.96472 
C          C       0.92861   0.44691   0.98865 
C          C       0.81243   0.22309   0.84820 
C          C       0.84893   0.29274   0.88278 
H          H       0.78820   0.26200   0.91161 
O          O       0.85456   0.32857   0.91543 
H          H       0.91468   0.45804   0.02225 
C          C       0.81373   0.25899   0.88337 
H          H       0.02023   0.60318   0.87039 
C          C       0.09527   0.58884   0.96472 
C          C       0.07139   0.55309   0.98865 
C          C       0.18757   0.77691   0.84820 
C          C       0.15107   0.70726   0.88278 
H          H       0.21180   0.73800   0.91161 
O          O       0.14544   0.67143   0.91543 
H          H       0.08532   0.54196   0.02225 
C          C       0.18627   0.74101   0.88337 
H          H       0.97977   0.39682   0.87039 
C          C       0.58884   0.03528   0.90473 
C          C       0.55309   0.01135   0.92861 
C          C       0.77691   0.15180   0.81243 
C          C       0.70726   0.11722   0.84893 
H          H       0.73800   0.08839   0.78820 
O          O       0.67143   0.08457   0.85456 
H          H       0.54196   0.97775   0.91468 
C          C       0.74101   0.11663   0.81373 
H          H       0.39682   0.12961   0.02023 
C          C       0.41116   0.03528   0.09527 
C          C       0.44691   0.01135   0.07139 
C          C       0.22309   0.15180   0.18757 
C          C       0.29274   0.11722   0.15107 
H          H       0.26200   0.08839   0.21180 
O          O       0.32857   0.08457   0.14544 
H          H       0.45804   0.97775   0.08532 
C          C       0.25899   0.11663   0.18627 
H          H       0.60318   0.12961   0.97977 
C          C       0.41116   0.96472   0.90473 
C          C       0.44691   0.98865   0.92861 
C          C       0.22309   0.84820   0.81243 
C          C       0.29274   0.88278   0.84893 
H          H       0.26200   0.91161   0.78820 
O          O       0.32857   0.91543   0.85456 
H          H       0.45804   0.02225   0.91468 
C          C       0.25899   0.88337   0.81373 
H          H       0.60318   0.87039   0.02023 
C          C       0.58884   0.96472   0.09527 
C          C       0.55309   0.98865   0.07139 
C          C       0.77691   0.84820   0.18757 
C          C       0.70726   0.88278   0.15107 
H          H       0.73800   0.91161   0.21180 
O          O       0.67143   0.91543   0.14544 
H          H       0.54196   0.02225   0.08532 
C          C       0.74101   0.88337   0.18627 
H          H       0.39682   0.87039   0.97977 
C          C       0.03528   0.90473   0.58884 
C          C       0.01135   0.92861   0.55309 
C          C       0.15180   0.81243   0.77691 
C          C       0.11722   0.84893   0.70726 
H          H       0.08839   0.78820   0.73800 
O          O       0.08457   0.85456   0.67143 
H          H       0.97775   0.91468   0.54196 
C          C       0.11663   0.81373   0.74101 
H          H       0.12961   0.02023   0.39682 
C          C       0.03528   0.09527   0.41116 
C          C       0.01135   0.07139   0.44691 
C          C       0.15180   0.18757   0.22309 
C          C       0.11722   0.15107   0.29274 
H          H       0.08839   0.21180   0.26200 
O          O       0.08457   0.14544   0.32857 
H          H       0.97775   0.08532   0.45804 
C          C       0.11663   0.18627   0.25899 
H          H       0.12961   0.97977   0.60318 
C          C       0.96472   0.90473   0.41116 
C          C       0.98865   0.92861   0.44691 
C          C       0.84820   0.81243   0.22309 
C          C       0.88278   0.84893   0.29274 
H          H       0.91161   0.78820   0.26200 
O          O       0.91543   0.85456   0.32857 
H          H       0.02225   0.91468   0.45804 
C          C       0.88337   0.81373   0.25899 
H          H       0.87039   0.02023   0.60318 
C          C       0.96472   0.09527   0.58884 
C          C       0.98865   0.07139   0.55309 
C          C       0.84820   0.18757   0.77691 
C          C       0.88278   0.15107   0.70726 
H          H       0.91161   0.21180   0.73800 
O          O       0.91543   0.14544   0.67143 
H          H       0.02225   0.08532   0.54196 
C          C       0.88337   0.18627   0.74101 
H          H       0.87039   0.97977   0.39682 
B          B       0.64886   0.89710   0.10290 
C          C       0.60702   0.92264   0.07736 
C          C       0.53295   0.97038   0.02962 
B          B       0.35114   0.10290   0.10290 
C          C       0.39298   0.07736   0.07736 
C          C       0.46705   0.02962   0.02962 
B          B       0.35114   0.89710   0.89710 
C          C       0.39298   0.92264   0.92264 
C          C       0.46705   0.97038   0.97038 
B          B       0.64886   0.10290   0.89710 
C          C       0.60702   0.07736   0.92264 
C          C       0.53295   0.02962   0.97038 
B          B       0.10290   0.64886   0.89710 
C          C       0.07736   0.60702   0.92264 
C          C       0.02962   0.53295   0.97038 
B          B       0.10290   0.35114   0.10290 
C          C       0.07736   0.39298   0.07736 
C          C       0.02962   0.46705   0.02962 
B          B       0.89710   0.35114   0.89710 
C          C       0.92264   0.39298   0.92264 
C          C       0.97038   0.46705   0.97038 
B          B       0.89710   0.64886   0.10290 
C          C       0.92264   0.60702   0.07736 
C          C       0.97038   0.53295   0.02962 
B          B       0.89710   0.10290   0.64886 
C          C       0.92264   0.07736   0.60702 
C          C       0.97038   0.02962   0.53295 
B          B       0.10290   0.10290   0.35114 
C          C       0.07736   0.07736   0.39298 
C          C       0.02962   0.02962   0.46705 
B          B       0.89710   0.89710   0.35114 
C          C       0.92264   0.92264   0.39298 
C          C       0.97038   0.97038   0.46705 
B          B       0.10290   0.89710   0.64886 
C          C       0.07736   0.92264   0.60702 
C          C       0.02962   0.97038   0.53295 
C          C       0.50000   0.00000   0.00000 
C          C       0.00000   0.50000   0.00000 
C          C       0.00000   0.00000   0.50000 
