data_crystal

_cell_length_a    28.12700
_cell_length_b    28.12700
_cell_length_c    8.87900
_cell_angle_alpha 90.00000
_cell_angle_beta  90.00000
_cell_angle_gamma 90.00000

_space_group_name_Hall 'P 1'
_space_group_name_H-M_alt  'P 1'

loop_
_symmetry_equiv_pos_as_xyz
'x,y,z' 

loop_
_atom_site_label
_atom_site_type_symbol
_atom_site_fract_x
_atom_site_fract_y
_atom_site_fract_z
C          C       0.46180   0.46990   0.02490 
C          C       0.49370   0.45870   0.92280 
C          C       0.48640   0.41800   0.84690 
C          C       0.53200   0.48930   0.89870 
N          N       0.51670   0.40600   0.74840 
C          C       0.51190   0.36670   0.65920 
C          C       0.55130   0.35290   0.58520 
C          C       0.54820   0.31580   0.49390 
C          C       0.50470   0.29270   0.47040 
C          C       0.46570   0.30570   0.54980 
C          C       0.46890   0.34260   0.64120 
H          H       0.43180   0.44710   0.04590 
H          H       0.45630   0.39570   0.86890 
H          H       0.55740   0.48190   0.82080 
H          H       0.58490   0.37060   0.59960 
H          H       0.58030   0.30520   0.44440 
H          H       0.43220   0.28740   0.53960 
H          H       0.43740   0.35270   0.69570 
C          C       0.96180   0.96990   0.52490 
C          C       0.99370   0.95870   0.42280 
C          C       0.98640   0.91800   0.34690 
C          C       0.03200   0.98930   0.39870 
N          N       0.01670   0.90600   0.24840 
C          C       0.01190   0.86670   0.15920 
C          C       0.05130   0.85290   0.08520 
C          C       0.04820   0.81580   0.99390 
C          C       0.00470   0.79270   0.97040 
C          C       0.96570   0.80570   0.04980 
C          C       0.96890   0.84260   0.14120 
H          H       0.93180   0.94710   0.54590 
H          H       0.95630   0.89570   0.36890 
H          H       0.05740   0.98190   0.32080 
H          H       0.08490   0.87060   0.09960 
H          H       0.08030   0.80520   0.94440 
H          H       0.93220   0.78740   0.03960 
H          H       0.93740   0.85270   0.19570 
C          C       0.03820   0.53010   0.52490 
C          C       0.00630   0.54130   0.42280 
C          C       0.01360   0.58200   0.34690 
C          C       0.96800   0.51070   0.39870 
N          N       0.98330   0.59400   0.24840 
C          C       0.98810   0.63330   0.15920 
C          C       0.94870   0.64710   0.08520 
C          C       0.95180   0.68420   0.99390 
C          C       0.99530   0.70730   0.97040 
C          C       0.03430   0.69430   0.04980 
C          C       0.03110   0.65740   0.14120 
H          H       0.06820   0.55290   0.54590 
H          H       0.04370   0.60430   0.36890 
H          H       0.94260   0.51810   0.32080 
H          H       0.91510   0.62940   0.09960 
H          H       0.91970   0.69480   0.94440 
H          H       0.06780   0.71260   0.03960 
H          H       0.06260   0.64730   0.19570 
C          C       0.53820   0.03010   0.02490 
C          C       0.50630   0.04130   0.92280 
C          C       0.51360   0.08200   0.84690 
C          C       0.46800   0.01070   0.89870 
N          N       0.48330   0.09400   0.74840 
C          C       0.48810   0.13330   0.65920 
C          C       0.44870   0.14710   0.58520 
C          C       0.45180   0.18420   0.49390 
C          C       0.49530   0.20730   0.47040 
C          C       0.53430   0.19430   0.54980 
C          C       0.53110   0.15740   0.64120 
H          H       0.56820   0.05290   0.04590 
H          H       0.54370   0.10430   0.86890 
H          H       0.44260   0.01810   0.82080 
H          H       0.41510   0.12940   0.59960 
H          H       0.41970   0.19480   0.44440 
H          H       0.56780   0.21260   0.53960 
H          H       0.56260   0.14730   0.69570 
C          C       0.28010   0.71180   0.27490 
C          C       0.29130   0.74370   0.17280 
C          C       0.33200   0.73640   0.09690 
C          C       0.26070   0.78200   0.14870 
N          N       0.34400   0.76670   0.99840 
C          C       0.38330   0.76190   0.90920 
C          C       0.39710   0.80130   0.83520 
C          C       0.43420   0.79820   0.74390 
C          C       0.45730   0.75470   0.72040 
C          C       0.44430   0.71570   0.79980 
C          C       0.40740   0.71890   0.89120 
H          H       0.30290   0.68180   0.29590 
H          H       0.35430   0.70630   0.11890 
H          H       0.26810   0.80740   0.07080 
H          H       0.37940   0.83490   0.84960 
H          H       0.44480   0.83030   0.69440 
H          H       0.46260   0.68220   0.78960 
H          H       0.39730   0.68740   0.94570 
C          C       0.78010   0.21180   0.77490 
C          C       0.79130   0.24370   0.67280 
C          C       0.83200   0.23640   0.59690 
C          C       0.76070   0.28200   0.64870 
N          N       0.84400   0.26670   0.49840 
C          C       0.88330   0.26190   0.40920 
C          C       0.89710   0.30130   0.33520 
C          C       0.93420   0.29820   0.24390 
C          C       0.95730   0.25470   0.22040 
C          C       0.94430   0.21570   0.29980 
C          C       0.90740   0.21890   0.39120 
H          H       0.80290   0.18180   0.79590 
H          H       0.85430   0.20630   0.61890 
H          H       0.76810   0.30740   0.57080 
H          H       0.87940   0.33490   0.34960 
H          H       0.94480   0.33030   0.19440 
H          H       0.96260   0.18220   0.28960 
H          H       0.89730   0.18740   0.44570 
C          C       0.21990   0.28820   0.77490 
C          C       0.20870   0.25630   0.67280 
C          C       0.16800   0.26360   0.59690 
C          C       0.23930   0.21800   0.64870 
N          N       0.15600   0.23330   0.49840 
C          C       0.11670   0.23810   0.40920 
C          C       0.10290   0.19870   0.33520 
C          C       0.06580   0.20180   0.24390 
C          C       0.04270   0.24530   0.22040 
C          C       0.05570   0.28430   0.29980 
C          C       0.09260   0.28110   0.39120 
H          H       0.19710   0.31820   0.79590 
H          H       0.14570   0.29370   0.61890 
H          H       0.23190   0.19260   0.57080 
H          H       0.12060   0.16510   0.34960 
H          H       0.05520   0.16970   0.19440 
H          H       0.03740   0.31780   0.28960 
H          H       0.10270   0.31260   0.44570 
C          C       0.71990   0.78820   0.27490 
C          C       0.70870   0.75630   0.17280 
C          C       0.66800   0.76360   0.09690 
C          C       0.73930   0.71800   0.14870 
N          N       0.65600   0.73330   0.99840 
C          C       0.61670   0.73810   0.90920 
C          C       0.60290   0.69870   0.83520 
C          C       0.56580   0.70180   0.74390 
C          C       0.54270   0.74530   0.72040 
C          C       0.55570   0.78430   0.79980 
C          C       0.59260   0.78110   0.89120 
H          H       0.69710   0.81820   0.29590 
H          H       0.64570   0.79370   0.11890 
H          H       0.73190   0.69260   0.07080 
H          H       0.62060   0.66510   0.84960 
H          H       0.55520   0.66970   0.69440 
H          H       0.53740   0.81780   0.78960 
H          H       0.60270   0.81260   0.94570 
C          C       0.53820   0.53010   0.97510 
C          C       0.50630   0.54130   0.07720 
C          C       0.51360   0.58200   0.15310 
C          C       0.46800   0.51070   0.10130 
N          N       0.48330   0.59400   0.25160 
C          C       0.48810   0.63330   0.34080 
C          C       0.44870   0.64710   0.41480 
C          C       0.45180   0.68420   0.50610 
C          C       0.49530   0.70730   0.52960 
C          C       0.53430   0.69430   0.45020 
C          C       0.53110   0.65740   0.35880 
H          H       0.56820   0.55290   0.95410 
H          H       0.54370   0.60430   0.13110 
H          H       0.44260   0.51810   0.17920 
H          H       0.41510   0.62940   0.40040 
H          H       0.41970   0.69480   0.55560 
H          H       0.56780   0.71260   0.46040 
H          H       0.56260   0.64730   0.30430 
C          C       0.03820   0.03010   0.47510 
C          C       0.00630   0.04130   0.57720 
C          C       0.01360   0.08200   0.65310 
C          C       0.96800   0.01070   0.60130 
N          N       0.98330   0.09400   0.75160 
C          C       0.98810   0.13330   0.84080 
C          C       0.94870   0.14710   0.91480 
C          C       0.95180   0.18420   0.00610 
C          C       0.99530   0.20730   0.02960 
C          C       0.03430   0.19430   0.95020 
C          C       0.03110   0.15740   0.85880 
H          H       0.06820   0.05290   0.45410 
H          H       0.04370   0.10430   0.63110 
H          H       0.94260   0.01810   0.67920 
H          H       0.91510   0.12940   0.90040 
H          H       0.91970   0.19480   0.05560 
H          H       0.06780   0.21260   0.96040 
H          H       0.06260   0.14730   0.80430 
C          C       0.96180   0.46990   0.47510 
C          C       0.99370   0.45870   0.57720 
C          C       0.98640   0.41800   0.65310 
C          C       0.03200   0.48930   0.60130 
N          N       0.01670   0.40600   0.75160 
C          C       0.01190   0.36670   0.84080 
C          C       0.05130   0.35290   0.91480 
C          C       0.04820   0.31580   0.00610 
C          C       0.00470   0.29270   0.02960 
C          C       0.96570   0.30570   0.95020 
C          C       0.96890   0.34260   0.85880 
H          H       0.93180   0.44710   0.45410 
H          H       0.95630   0.39570   0.63110 
H          H       0.05740   0.48190   0.67920 
H          H       0.08490   0.37060   0.90040 
H          H       0.08030   0.30520   0.05560 
H          H       0.93220   0.28740   0.96040 
H          H       0.93740   0.35270   0.80430 
C          C       0.46180   0.96990   0.97510 
C          C       0.49370   0.95870   0.07720 
C          C       0.48640   0.91800   0.15310 
C          C       0.53200   0.98930   0.10130 
N          N       0.51670   0.90600   0.25160 
C          C       0.51190   0.86670   0.34080 
C          C       0.55130   0.85290   0.41480 
C          C       0.54820   0.81580   0.50610 
C          C       0.50470   0.79270   0.52960 
C          C       0.46570   0.80570   0.45020 
C          C       0.46890   0.84260   0.35880 
H          H       0.43180   0.94710   0.95410 
H          H       0.45630   0.89570   0.13110 
H          H       0.55740   0.98190   0.17920 
H          H       0.58490   0.87060   0.40040 
H          H       0.58030   0.80520   0.55560 
H          H       0.43220   0.78740   0.46040 
H          H       0.43740   0.85270   0.30430 
C          C       0.71990   0.28820   0.72510 
C          C       0.70870   0.25630   0.82720 
C          C       0.66800   0.26360   0.90310 
C          C       0.73930   0.21800   0.85130 
N          N       0.65600   0.23330   0.00160 
C          C       0.61670   0.23810   0.09080 
C          C       0.60290   0.19870   0.16480 
C          C       0.56580   0.20180   0.25610 
C          C       0.54270   0.24530   0.27960 
C          C       0.55570   0.28430   0.20020 
C          C       0.59260   0.28110   0.10880 
H          H       0.69710   0.31820   0.70410 
H          H       0.64570   0.29370   0.88110 
H          H       0.73190   0.19260   0.92920 
H          H       0.62060   0.16510   0.15040 
H          H       0.55520   0.16970   0.30560 
H          H       0.53740   0.31780   0.21040 
H          H       0.60270   0.31260   0.05430 
C          C       0.21990   0.78820   0.22510 
C          C       0.20870   0.75630   0.32720 
C          C       0.16800   0.76360   0.40310 
C          C       0.23930   0.71800   0.35130 
N          N       0.15600   0.73330   0.50160 
C          C       0.11670   0.73810   0.59080 
C          C       0.10290   0.69870   0.66480 
C          C       0.06580   0.70180   0.75610 
C          C       0.04270   0.74530   0.77960 
C          C       0.05570   0.78430   0.70020 
C          C       0.09260   0.78110   0.60880 
H          H       0.19710   0.81820   0.20410 
H          H       0.14570   0.79370   0.38110 
H          H       0.23190   0.69260   0.42920 
H          H       0.12060   0.66510   0.65040 
H          H       0.05520   0.66970   0.80560 
H          H       0.03740   0.81780   0.71040 
H          H       0.10270   0.81260   0.55430 
C          C       0.78010   0.71180   0.22510 
C          C       0.79130   0.74370   0.32720 
C          C       0.83200   0.73640   0.40310 
C          C       0.76070   0.78200   0.35130 
N          N       0.84400   0.76670   0.50160 
C          C       0.88330   0.76190   0.59080 
C          C       0.89710   0.80130   0.66480 
C          C       0.93420   0.79820   0.75610 
C          C       0.95730   0.75470   0.77960 
C          C       0.94430   0.71570   0.70020 
C          C       0.90740   0.71890   0.60880 
H          H       0.80290   0.68180   0.20410 
H          H       0.85430   0.70630   0.38110 
H          H       0.76810   0.80740   0.42920 
H          H       0.87940   0.83490   0.65040 
H          H       0.94480   0.83030   0.80560 
H          H       0.96260   0.68220   0.71040 
H          H       0.89730   0.68740   0.55430 
C          C       0.28010   0.21180   0.72510 
C          C       0.29130   0.24370   0.82720 
C          C       0.33200   0.23640   0.90310 
C          C       0.26070   0.28200   0.85130 
N          N       0.34400   0.26670   0.00160 
C          C       0.38330   0.26190   0.09080 
C          C       0.39710   0.30130   0.16480 
C          C       0.43420   0.29820   0.25610 
C          C       0.45730   0.25470   0.27960 
C          C       0.44430   0.21570   0.20020 
C          C       0.40740   0.21890   0.10880 
H          H       0.30290   0.18180   0.70410 
H          H       0.35430   0.20630   0.88110 
H          H       0.26810   0.30740   0.92920 
H          H       0.37940   0.33490   0.15040 
H          H       0.44480   0.33030   0.30560 
H          H       0.46260   0.18220   0.21040 
H          H       0.39730   0.18740   0.05430 
C          C       0.00000   0.25000   0.12500 
C          C       0.50000   0.75000   0.62500 
C          C       0.50000   0.25000   0.37500 
C          C       0.00000   0.75000   0.87500 
