data_DMTA-TPB1-4
_audit_creation_date              0000-00-00
_audit_creation_method            'LanYouShi'
_symmetry_space_group_name_H-M    'P1'
_cell_length_a                    37.2093010
_cell_length_b                    37.2015991
_cell_length_c                    3.5400000
_cell_angle_alpha                 90.0596008
_cell_angle_beta                  89.9841995
_cell_angle_gamma                 120.0514984
loop_
_atom_site_label
_atom_site_type_symbol
_atom_site_fract_x
_atom_site_fract_y
_atom_site_fract_z
_atom_site_U_iso_or_equiv
_atom_site_adp_type
_atom_site_occupancy
       C11          C  0.4629500  0.4957800 -0.2287400    0.00000       Uiso       1.00
       C22          C  0.4504500  0.4529500 -0.2436200    0.00000       Uiso       1.00
       C33          C  0.4796000  0.4403300 -0.1702800    0.00000       Uiso       1.00
       C44          C  0.5210500  0.4690700 -0.0732100    0.00000       Uiso       1.00
       C55          C  0.5334900  0.5118400 -0.0625300    0.00000       Uiso       1.00
       C66          C  0.5043100  0.5243200 -0.1305000    0.00000       Uiso       1.00
       O77          O  0.5731300  0.5426600  0.0542600    0.00000       Uiso       1.00
       C88          C  0.6068299  0.5503900 -0.1888700    0.00000       Uiso       1.00
       O99          O  0.4107200  0.4219300 -0.3602100    0.00000       Uiso       1.00
     C1010          C  0.3761500  0.4169200 -0.1430300    0.00000       Uiso       1.00
     C1111          C  0.5508500  0.4545100  0.0156300    0.00000       Uiso       1.00
     C1212          C  0.4341100  0.5115500 -0.3155100    0.00000       Uiso       1.00
     N1313          N  0.4447800  0.5498600 -0.2370300    0.00000       Uiso       1.00
     N1414          N  0.5389799  0.4150200  0.0185600    0.00000       Uiso       1.00
     C1515          C  0.4208000  0.5702200 -0.2853900    0.00000       Uiso       1.00
     C1616          C  0.5664000  0.3986800  0.0750500    0.00000       Uiso       1.00
     C1717          C  0.5500200  0.3577600  0.2017900    0.00000       Uiso       1.00
     C1818          C  0.5756100  0.3403900  0.2439700    0.00000       Uiso       1.00
     C1919          C  0.6180900  0.3634600  0.1550500    0.00000       Uiso       1.00
     C2020          C  0.6343200  0.4043400  0.0232500    0.00000       Uiso       1.00
     C2121          C  0.6087800  0.4216600 -0.0190600    0.00000       Uiso       1.00
     C2222          C  0.4397700  0.6123400 -0.1916800    0.00000       Uiso       1.00
     C2323          C  0.4181300  0.6339300 -0.2213100    0.00000       Uiso       1.00
     C2424          C  0.3765600  0.6137600 -0.3456200    0.00000       Uiso       1.00
     C2525          C  0.3573400  0.5713000 -0.4388500    0.00000       Uiso       1.00
     C2626          C  0.3791500  0.5496500 -0.4091100    0.00000       Uiso       1.00
     C2727          C  0.6457099  0.3453900  0.2048700    0.00000       Uiso       1.00
     C2828          C  0.3536600  0.6370500 -0.3721500    0.00000       Uiso       1.00
     C2929          C  0.6867099  0.3703900  0.3213700    0.00000       Uiso       1.00
     C3030          C  0.3123000  0.6827600 -0.3874000    0.00000       Uiso       1.00
     C3131          C  0.4864500  0.9502400 -0.2272900    0.00000       Uiso       1.00
     C3232          C  0.5287099  0.9815900 -0.2095100    0.00000       Uiso       1.00
     C3333          C  0.5397500  0.0224700 -0.1180100    0.00000       Uiso       1.00
     C3434          C  0.5102200  0.0343100 -0.0257400    0.00000       Uiso       1.00
     C3535          C  0.4676300  0.0037100 -0.0398700    0.00000       Uiso       1.00
     C3636          C  0.4560700  0.9606500 -0.1357600    0.00000       Uiso       1.00
     O3737          O  0.4353000  0.0109300  0.0630500    0.00000       Uiso       1.00
     C3838          C  0.4319900  0.0420300 -0.1463500    0.00000       Uiso       1.00
     O3939          O  0.5609199  0.9749900 -0.3282200    0.00000       Uiso       1.00
     C4040          C  0.5701200  0.9493600 -0.0962100    0.00000       Uiso       1.00
     C4141          C  0.5250500  0.0784700  0.0771300    0.00000       Uiso       1.00
     C4242          C  0.4738999  0.9068000 -0.3321800    0.00000       Uiso       1.00
     N4343          N  0.4359700  0.8803400 -0.4262200    0.00000       Uiso       1.00
     N4444          N  0.5644900  0.1051500  0.0573300    0.00000       Uiso       1.00
     C4545          C  0.4192000  0.8365900 -0.4914700    0.00000       Uiso       1.00
     C4646          C  0.5855200  0.1492500  0.1151400    0.00000       Uiso       1.00
     C4747          C  0.6264500  0.1718400 -0.0072700    0.00000       Uiso       1.00
     C4848          C  0.6482800  0.2149300  0.0132500    0.00000       Uiso       1.00
     C4949          C  0.6315700  0.2374500  0.1846800    0.00000       Uiso       1.00
     C5050          C  0.5899400  0.2140900  0.3132400    0.00000       Uiso       1.00
     C5151          C  0.5668700  0.1705600  0.2741800    0.00000       Uiso       1.00
     C5252          C  0.3789500  0.8135600 -0.6375300    0.00000       Uiso       1.00
     C5353          C  0.3591099  0.7702399 -0.6584500    0.00000       Uiso       1.00
     C5454          C  0.3786200  0.7487900 -0.5206100    0.00000       Uiso       1.00
     C5555          C  0.4199000  0.7721700 -0.3920000    0.00000       Uiso       1.00
     C5656          C  0.4399900  0.8154900 -0.3788700    0.00000       Uiso       1.00
     C5757          C  0.6550000  0.2846700  0.2086200    0.00000       Uiso       1.00
     C5858          C  0.3548100  0.7027500 -0.4721800    0.00000       Uiso       1.00
     C5959          C  0.6309400  0.3034300  0.1371500    0.00000       Uiso       1.00
     C6060          C  0.3112300  0.6179600 -0.2807600    0.00000       Uiso       1.00
     C6161          C  0.0504000  0.5546800  0.2497200    0.00000       Uiso       1.00
     C6262          C  0.0222500  0.5691100  0.2026300    0.00000       Uiso       1.00
     C6363          C  0.9778699  0.5419200  0.3012700    0.00000       Uiso       1.00
     C6464          C  0.9636800  0.5019500  0.4457200    0.00000       Uiso       1.00
     C6565          C  0.9919699  0.4876100  0.4883900    0.00000       Uiso       1.00
     C6666          C  0.0359800  0.5146700  0.3915300    0.00000       Uiso       1.00
     O6767          O  0.9803900  0.4498200  0.6638400    0.00000       Uiso       1.00
     C6868          C  0.9563000  0.4140700  0.4340100    0.00000       Uiso       1.00
     O6969          O  0.0337400  0.6053200 -0.0012300    0.00000       Uiso       1.00
     C7070          C  0.0416400  0.6403000  0.2264200    0.00000       Uiso       1.00
     C7171          C  0.9195899  0.4744000  0.5500100    0.00000       Uiso       1.00
     C7272          C  0.0948900  0.5810000  0.1526600    0.00000       Uiso       1.00
     N7373          N  0.1156700  0.5637900  0.0386300    0.00000       Uiso       1.00
     N7474          N  0.8900999  0.4785300  0.3972800    0.00000       Uiso       1.00
     C7575          C  0.1591300  0.5843600 -0.0499900    0.00000       Uiso       1.00
     C7676          C  0.8463399  0.4494100  0.4315900    0.00000       Uiso       1.00
     C7777          C  0.8178999  0.4589500  0.2676700    0.00000       Uiso       1.00
     C7878          C  0.7756100  0.4288800  0.2453500    0.00000       Uiso       1.00
     C7979          C  0.7600600  0.3886100  0.4007900    0.00000       Uiso       1.00
     C8080          C  0.7886199  0.3818200  0.5991500    0.00000       Uiso       1.00
     C8181          C  0.8310400  0.4102500  0.5995800    0.00000       Uiso       1.00
     C8282          C  0.1752200  0.5608100 -0.2059900    0.00000       Uiso       1.00
     C8383          C  0.2176500  0.5786900 -0.2804400    0.00000       Uiso       1.00
     C8484          C  0.2452000  0.6205700 -0.1926600    0.00000       Uiso       1.00
     C8585          C  0.2289500  0.6441400 -0.0312300    0.00000       Uiso       1.00
     C8686          C  0.1864200  0.6263400  0.0369200    0.00000       Uiso       1.00
     C8787          C  0.7146400  0.3553900  0.3499200    0.00000       Uiso       1.00
     C8888          C  0.2901500  0.6405100 -0.2904300    0.00000       Uiso       1.00
     C8989          C  0.6983700  0.3109600  0.3097100    0.00000       Uiso       1.00
     C9090          C  0.3748400  0.6792300 -0.4746200    0.00000       Uiso       1.00
     C9191          C  0.7238799  2.2909300  0.4282000    0.00000       Uiso       1.00
     C9292          C  0.7698799  2.2446702  0.2896500    0.00000       Uiso       1.00
     C9393          C  0.7863899  2.2900102  0.4061300    0.00000       Uiso       1.00
     C9494          C  0.8318298  2.3133800  0.2804300    0.00000       Uiso       1.00
     C9595          C  0.8409300  2.2793801  0.1450900    0.00000       Uiso       1.00
     N9696          N  0.8051100  2.2383401  0.2270500    0.00000       Uiso       1.00
     C9797          C  0.8822099  1.2845100  0.2694900    0.00000       Uiso       1.00
     O9898          O  0.8843499  1.2516100  0.4378300    0.00000       Uiso       1.00
     O1009          O  0.9141099  1.3171500  0.2063900    0.00000       Uiso       1.00
     O1011          O  0.7633499  1.3077600  0.2560700    0.00000       Uiso       1.00
     H1021          H  0.4694400  0.4075400 -0.1905400    0.00000       Uiso       1.00
     H1031          H  0.5145400  0.5571200 -0.1085200    0.00000       Uiso       1.00
     H1041          H  0.6143299  0.5775200 -0.3709500    0.00000       Uiso       1.00
     H1051          H  0.6003399  0.5233001 -0.3673100    0.00000       Uiso       1.00
     H1061          H  0.6346300  0.5585400 -0.0134500    0.00000       Uiso       1.00
     H1071          H  0.3617800  0.3864600  0.0028400    0.00000       Uiso       1.00
     H1081          H  0.3527100  0.4172600 -0.3338400    0.00000       Uiso       1.00
     H1091          H  0.3849100  0.4417300  0.0689100    0.00000       Uiso       1.00
     H1101          H  0.5829599  0.4773900  0.0834100    0.00000       Uiso       1.00
     H1111          H  0.4041900  0.4908700 -0.4380200    0.00000       Uiso       1.00
     H1121          H  0.5174199  0.3394300  0.2727800    0.00000       Uiso       1.00
     H1131          H  0.5626500  0.3092900  0.3555000    0.00000       Uiso       1.00
     H1141          H  0.6667400  0.4227000 -0.0548600    0.00000       Uiso       1.00
     H1151          H  0.6219800  0.4524700 -0.1381600    0.00000       Uiso       1.00
     H1161          H  0.4716000  0.6286200 -0.0912900    0.00000       Uiso       1.00
     H1171          H  0.4337900  0.6662800 -0.1371100    0.00000       Uiso       1.00
     H1181          H  0.3255400  0.5547200 -0.5386600    0.00000       Uiso       1.00
     H1191          H  0.3631200  0.5171100 -0.4823300    0.00000       Uiso       1.00
     H1201          H  0.6969400  0.4023900  0.3963000    0.00000       Uiso       1.00
     H1211          H  0.2963600  0.7003900 -0.3908200    0.00000       Uiso       1.00
     H1221          H  0.5724500  0.0453300 -0.1210100    0.00000       Uiso       1.00
     H1231          H  0.4235000  0.9372600 -0.1386000    0.00000       Uiso       1.00
     H1241          H  0.4015300  0.0273200 -0.2892000    0.00000       Uiso       1.00
     H1251          H  0.4576600  0.0583100 -0.3530900    0.00000       Uiso       1.00
     H1261          H  0.4329800  0.0655200  0.0516900    0.00000       Uiso       1.00
     H1271          H  0.6003199  0.9690700  0.0462600    0.00000       Uiso       1.00
     H1281          H  0.5730600  0.9265100 -0.2766900    0.00000       Uiso       1.00
     H1291          H  0.5455899  0.9315200  0.1145900    0.00000       Uiso       1.00
     H1301          H  0.5034800  0.0889100  0.1452000    0.00000       Uiso       1.00
     H1311          H  0.4964400  0.8969300 -0.3197900    0.00000       Uiso       1.00
     H1321          H  0.6412300  0.1559500 -0.1329700    0.00000       Uiso       1.00
     H1331          H  0.6785200  0.2296900 -0.1054900    0.00000       Uiso       1.00
     H1341          H  0.5752500  0.2294600  0.4485800    0.00000       Uiso       1.00
     H1351          H  0.5352400  0.1538800  0.3768600    0.00000       Uiso       1.00
     H1361          H  0.3626300  0.8293100 -0.7290200    0.00000       Uiso       1.00
     H1371          H  0.3281400  0.7534700 -0.7769600    0.00000       Uiso       1.00
     H1381          H  0.4360299  0.7571300 -0.2797100    0.00000       Uiso       1.00
     H1391          H  0.4708200  0.8318500 -0.2594400    0.00000       Uiso       1.00
     H1401          H  0.5994300  0.2847600  0.0333300    0.00000       Uiso       1.00
     H1411          H  0.2949000  0.5859500 -0.1883300    0.00000       Uiso       1.00
     H1421          H  0.9565700  0.5534000  0.2572500    0.00000       Uiso       1.00
     H1431          H  0.0571400  0.5030600  0.4344000    0.00000       Uiso       1.00
     H1441          H  0.9441900  0.3858800  0.6149800    0.00000       Uiso       1.00
     H1451          H  0.9764000  0.4111600  0.2197500    0.00000       Uiso       1.00
     H1461          H  0.9292200  0.4148400  0.3022100    0.00000       Uiso       1.00
     H1471          H  0.0485500  0.6668500  0.0403000    0.00000       Uiso       1.00
     H1481          H  0.0692500  0.6496000  0.4071900    0.00000       Uiso       1.00
     H1491          H  0.0138600  0.6334500  0.3993800    0.00000       Uiso       1.00
     H1501          H  0.9124800  0.4476900  0.7260000    0.00000       Uiso       1.00
     H1511          H  0.1092300  0.6145300  0.1680100    0.00000       Uiso       1.00
     H1521          H  0.8287600  0.4889500  0.1362600    0.00000       Uiso       1.00
     H1531          H  0.7556199  0.4368500  0.0875200    0.00000       Uiso       1.00
     H1541          H  0.7786700  0.3552300  0.7686700    0.00000       Uiso       1.00
     H1551          H  0.8510600  0.4011800  0.7396500    0.00000       Uiso       1.00
     H1561          H  0.1545300  0.5286300 -0.2784100    0.00000       Uiso       1.00
     H1571          H  0.2284900  0.5602100 -0.4226800    0.00000       Uiso       1.00
     H1581          H  0.2490800  0.6762800  0.0494300    0.00000       Uiso       1.00
     H1591          H  0.1754500  0.6452500  0.1680600    0.00000       Uiso       1.00
     H1601          H  0.4071500  0.6938100 -0.5567200    0.00000       Uiso       1.00
     H1611          H  0.7079399  2.2576900  0.3917700    0.00000       Uiso       1.00
     H1621          H  0.7268499  2.2947500  0.7257300    0.00000       Uiso       1.00
     H1631          H  0.7509899  2.2376502  0.0361800    0.00000       Uiso       1.00
     H1641          H  0.7477400  2.2212901  0.4885000    0.00000       Uiso       1.00
     H1651          H  0.7864399  2.2917199  0.7055400    0.00000       Uiso       1.00
     H1661          H  0.8537699  2.3330901  0.5014400    0.00000       Uiso       1.00
     H1671          H  0.8368699  2.3365500  0.0617700    0.00000       Uiso       1.00
     H1681          H  0.8432699  2.2813702 -0.1528700    0.00000       Uiso       1.00
     H1691          H  0.8096199  2.2258201  0.4743600    0.00000       Uiso       1.00
      H169          H  0.9138699  1.2593399  0.5040400    0.00000       Uiso       1.00
