data_DMTA-TPB1-5
_audit_creation_date              0000-00-00
_audit_creation_method            'LanYouShi'
_symmetry_space_group_name_H-M    'P1'
_cell_length_a                    37.5012016
_cell_length_b                    37.4998016
_cell_length_c                    3.5400000
_cell_angle_alpha                 90.0056000
_cell_angle_beta                  90.0552979
_cell_angle_gamma                 120.0100021
loop_
_atom_site_label
_atom_site_type_symbol
_atom_site_fract_x
_atom_site_fract_y
_atom_site_fract_z
_atom_site_U_iso_or_equiv
_atom_site_adp_type
_atom_site_occupancy
       C11          C  0.4755700  0.5129900  0.2515500    0.00000       Uiso       1.00
       C22          C  0.4623900  0.4703200  0.2304300    0.00000       Uiso       1.00
       C33          C  0.4906500  0.4568100  0.2958900    0.00000       Uiso       1.00
       C44          C  0.5316700  0.4841200  0.4019100    0.00000       Uiso       1.00
       C55          C  0.5446300  0.5266500  0.4304300    0.00000       Uiso       1.00
       C66          C  0.5165700  0.5403000  0.3595200    0.00000       Uiso       1.00
       O77          O  0.5841600  0.5564499  0.5509300    0.00000       Uiso       1.00
       C88          C  0.6181200  0.5617000  0.3269100    0.00000       Uiso       1.00
       O99          O  0.4225600  0.4402100  0.1182300    0.00000       Uiso       1.00
     C1010          C  0.3887900  0.4362200  0.3383600    0.00000       Uiso       1.00
     C1111          C  0.5599600  0.4678200  0.4851100    0.00000       Uiso       1.00
     C1212          C  0.4476500  0.5294200  0.1553000    0.00000       Uiso       1.00
     N1313          N  0.4596700  0.5684400  0.1849200    0.00000       Uiso       1.00
     N1414          N  0.5507300  0.4309200  0.3803300    0.00000       Uiso       1.00
     C1515          C  0.4339400  0.5863400  0.1202100    0.00000       Uiso       1.00
     C1616          C  0.5754200  0.4113700  0.4182800    0.00000       Uiso       1.00
     C1717          C  0.5585400  0.3707300  0.2925300    0.00000       Uiso       1.00
     C1818          C  0.5817700  0.3509200  0.2916300    0.00000       Uiso       1.00
     C1919          C  0.6227400  0.3708900  0.4260700    0.00000       Uiso       1.00
     C2020          C  0.6392700  0.4115000  0.5644500    0.00000       Uiso       1.00
     C2121          C  0.6161800  0.4316900  0.5564300    0.00000       Uiso       1.00
     C2222          C  0.4519700  0.6269600 -0.0087700    0.00000       Uiso       1.00
     C2323          C  0.4281900  0.6457800 -0.0662000    0.00000       Uiso       1.00
     C2424          C  0.3857200  0.6249599  0.0182700    0.00000       Uiso       1.00
     C2525          C  0.3679700  0.5843199  0.1581900    0.00000       Uiso       1.00
     C2626          C  0.3916300  0.5651400  0.2051100    0.00000       Uiso       1.00
     C2727          C  0.6483900  0.3502500  0.3955900    0.00000       Uiso       1.00
     C2828          C  0.3602700  0.6452700 -0.0487600    0.00000       Uiso       1.00
     C2929          C  0.6910300  0.3732300  0.3465400    0.00000       Uiso       1.00
     C3030          C  0.3140500  0.6835500 -0.2248800    0.00000       Uiso       1.00
     C3131          C  0.4774600  0.9568999 -0.1654600    0.00000       Uiso       1.00
     C3232          C  0.5177500  0.9883600 -0.2814400    0.00000       Uiso       1.00
     C3333          C  0.5280400  0.0298900 -0.2629600    0.00000       Uiso       1.00
     C3434          C  0.5007200  0.0424900 -0.1352100    0.00000       Uiso       1.00
     C3535          C  0.4607800  0.0126900 -0.0329400    0.00000       Uiso       1.00
     C3636          C  0.4490300  0.9688700 -0.0510000    0.00000       Uiso       1.00
     O3737          O  0.4353200  0.0236400  0.1632600    0.00000       Uiso       1.00
     C3838          C  0.4062200  0.0272000 -0.0681900    0.00000       Uiso       1.00
     O3939          O  0.5487800  0.9826900 -0.4493400    0.00000       Uiso       1.00
     C4040          C  0.5516200  0.9467000 -0.3924000    0.00000       Uiso       1.00
     C4141          C  0.5152700  0.0869800 -0.0968500    0.00000       Uiso       1.00
     C4242          C  0.4639300  0.9122999 -0.1419400    0.00000       Uiso       1.00
     N4343          N  0.4256100  0.8843499 -0.1880500    0.00000       Uiso       1.00
     N4444          N  0.5509900  0.1103500  0.0530800    0.00000       Uiso       1.00
     C4545          C  0.4097700  0.8406300 -0.1633300    0.00000       Uiso       1.00
     C4646          C  0.5730000  0.1541500  0.1094900    0.00000       Uiso       1.00
     C4747          C  0.6116500  0.1709100  0.2742400    0.00000       Uiso       1.00
     C4848          C  0.6363500  0.2131900  0.3181400    0.00000       Uiso       1.00
     C4949          C  0.6240300  0.2409000  0.2030500    0.00000       Uiso       1.00
     C5050          C  0.5839800  0.2237300  0.0448200    0.00000       Uiso       1.00
     C5151          C  0.5587300  0.1808100 -0.0037000    0.00000       Uiso       1.00
     C5252          C  0.3687900  0.8151600 -0.0553400    0.00000       Uiso       1.00
     C5353          C  0.3519100  0.7724800 -0.0348700    0.00000       Uiso       1.00
     C5454          C  0.3752600  0.7539600 -0.1360600    0.00000       Uiso       1.00
     C5555          C  0.4165000  0.7796300 -0.2461900    0.00000       Uiso       1.00
     C5656          C  0.4336700  0.8225400 -0.2576400    0.00000       Uiso       1.00
     C5757          C  0.6508800  0.2867900  0.2781300    0.00000       Uiso       1.00
     C5858          C  0.3559700  0.7081000 -0.1364800    0.00000       Uiso       1.00
     C5959          C  0.6296200  0.3073700  0.3827200    0.00000       Uiso       1.00
     C6060          C  0.3174500  0.6216000 -0.1194600    0.00000       Uiso       1.00
     C6161          C  0.0456100  0.5300300 -0.3190800    0.00000       Uiso       1.00
     C6262          C  0.0179100  0.5438200 -0.4016000    0.00000       Uiso       1.00
     C6363          C  0.9733300  0.5169100 -0.3226300    0.00000       Uiso       1.00
     C6464          C  0.9579000  0.4765500 -0.1911500    0.00000       Uiso       1.00
     C6565          C  0.9854800  0.4612400 -0.1514300    0.00000       Uiso       1.00
     C6666          C  0.0301100  0.4894200 -0.1989200    0.00000       Uiso       1.00
     O6767          O  0.9737600  0.4221700 -0.0055400    0.00000       Uiso       1.00
     C6868          C  0.9459700  0.3873400 -0.2268300    0.00000       Uiso       1.00
     O6969          O  0.0312700  0.5801300 -0.6067100    0.00000       Uiso       1.00
     C7070          C  0.0329500  0.6131900 -0.3975400    0.00000       Uiso       1.00
     C7171          C  0.9136600  0.4506600 -0.0914800    0.00000       Uiso       1.00
     C7272          C  0.0906700  0.5588000 -0.3367600    0.00000       Uiso       1.00
     N7373          N  0.1165100  0.5451699 -0.3181500    0.00000       Uiso       1.00
     N7474          N  0.8887700  0.4652300 -0.0523200    0.00000       Uiso       1.00
     C7575          C  0.1607000  0.5700800 -0.2998900    0.00000       Uiso       1.00
     C7676          C  0.8459900  0.4398500  0.0546500    0.00000       Uiso       1.00
     C7777          C  0.8166100  0.4505800 -0.0551200    0.00000       Uiso       1.00
     C7878          C  0.7743200  0.4232100  0.0062700    0.00000       Uiso       1.00
     C7979          C  0.7603999  0.3846800  0.1859800    0.00000       Uiso       1.00
     C8080          C  0.7906300  0.3765800  0.3190200    0.00000       Uiso       1.00
     C8181          C  0.8323500  0.4029400  0.2525600    0.00000       Uiso       1.00
     C8282          C  0.1846500  0.5525500 -0.4032300    0.00000       Uiso       1.00
     C8383          C  0.2277400  0.5752700 -0.3779700    0.00000       Uiso       1.00
     C8484          C  0.2478700  0.6159300 -0.2391000    0.00000       Uiso       1.00
     C8585          C  0.2234600  0.6330100 -0.1269500    0.00000       Uiso       1.00
     C8686          C  0.1805200  0.6105400 -0.1591100    0.00000       Uiso       1.00
     C8787          C  0.7151100  0.3549800  0.2617500    0.00000       Uiso       1.00
     C8888          C  0.2938100  0.6404800 -0.1979400    0.00000       Uiso       1.00
     C8989          C  0.6953200  0.3104300  0.2296300    0.00000       Uiso       1.00
     C9090          C  0.3787000  0.6886500 -0.0454900    0.00000       Uiso       1.00
     C9191          C  0.7177601  2.2911401  0.0210800    0.00000       Uiso       1.00
     C9292          C  0.7386700  1.2664100  0.1904600    0.00000       Uiso       1.00
     N9393          N  0.7191200  1.2228699  0.0756500    0.00000       Uiso       1.00
     C9494          C  0.7512900  1.2126400 -0.0427800    0.00000       Uiso       1.00
     N9595          N  0.7912700  1.2508999  0.0382500    0.00000       Uiso       1.00
     C9696          C  0.7824300  1.2813499  0.1053000    0.00000       Uiso       1.00
     C9797          C  0.7411900  1.1668700  0.1272400    0.00000       Uiso       1.00
     C9898          C  0.6964501  1.1485900  0.3094400    0.00000       Uiso       1.00
     C9999          C  0.7828500  1.1759200  0.3104800    0.00000       Uiso       1.00
     C1001          C  0.7315900  1.1244000 -0.0605100    0.00000       Uiso       1.00
     C1011          C  0.8336300  1.2635300 -0.0902100    0.00000       Uiso       1.00
     O1021          O  0.8088101  1.3175900  0.0931700    0.00000       Uiso       1.00
     H1031          H  0.4799900  0.4242200  0.2694400    0.00000       Uiso       1.00
     H1041          H  0.5274000  0.5729400  0.3851600    0.00000       Uiso       1.00
     H1051          H  0.6312800  0.5914400  0.1741400    0.00000       Uiso       1.00
     H1061          H  0.6095500  0.5365100  0.1203900    0.00000       Uiso       1.00
     H1071          H  0.6423400  0.5625800  0.5133700    0.00000       Uiso       1.00
     H1081          H  0.3737300  0.4058400  0.4814200    0.00000       Uiso       1.00
     H1091          H  0.3658100  0.4374200  0.1494300    0.00000       Uiso       1.00
     H1101          H  0.3981800  0.4608000  0.5528000    0.00000       Uiso       1.00
     H1111          H  0.5887800  0.4874100  0.6249000    0.00000       Uiso       1.00
     H1121          H  0.4169500  0.5086200  0.0529100    0.00000       Uiso       1.00
     H1131          H  0.5275100  0.3547600  0.1801300    0.00000       Uiso       1.00
     H1141          H  0.5678800  0.3204900  0.1675700    0.00000       Uiso       1.00
     H1151          H  0.6700900  0.4279000  0.6812299    0.00000       Uiso       1.00
     H1161          H  0.6306300  0.4630900  0.6571400    0.00000       Uiso       1.00
     H1171          H  0.4845700  0.6439500 -0.0730600    0.00000       Uiso       1.00
     H1181          H  0.4432100  0.6765200 -0.1839400    0.00000       Uiso       1.00
     H1191          H  0.3359800  0.5674000  0.2418200    0.00000       Uiso       1.00
     H1201          H  0.3771900  0.5343000  0.3208900    0.00000       Uiso       1.00
     H1211          H  0.7057700  0.4063600  0.3594100    0.00000       Uiso       1.00
     H1221          H  0.2969300  0.6981800 -0.3164900    0.00000       Uiso       1.00
     H1231          H  0.5586400  0.0532000 -0.3516200    0.00000       Uiso       1.00
     H1241          H  0.4186100  0.9462100  0.0463600    0.00000       Uiso       1.00
     H1251          H  0.3879800 -0.0012300 -0.2381300    0.00000       Uiso       1.00
     H1261          H  0.4221300  0.0546900 -0.2519100    0.00000       Uiso       1.00
     H1271          H  0.3846200  0.0313600  0.1153900    0.00000       Uiso       1.00
     H1281          H  0.5809700  0.9518400 -0.5161900    0.00000       Uiso       1.00
     H1291          H  0.5260600  0.9195700 -0.5318600    0.00000       Uiso       1.00
     H1301          H  0.5533700  0.9410900 -0.0940200    0.00000       Uiso       1.00
     H1311          H  0.4964100  0.0993600 -0.1940200    0.00000       Uiso       1.00
     H1321          H  0.4850000  0.9026899 -0.0476600    0.00000       Uiso       1.00
     H1331          H  0.6222700  0.1506900  0.3762700    0.00000       Uiso       1.00
     H1341          H  0.6649200  0.2237700  0.4476700    0.00000       Uiso       1.00
     H1351          H  0.5721200  0.2433200 -0.0469900    0.00000       Uiso       1.00
     H1361          H  0.5287400  0.1689900 -0.1329300    0.00000       Uiso       1.00
     H1371          H  0.3500100  0.8285400  0.0194500    0.00000       Uiso       1.00
     H1381          H  0.3205400  0.7539400  0.0640300    0.00000       Uiso       1.00
     H1391          H  0.4352300  0.7665499 -0.3330400    0.00000       Uiso       1.00
     H1401          H  0.4651300  0.8413400 -0.3523200    0.00000       Uiso       1.00
     H1411          H  0.5970600  0.2894600  0.4434800    0.00000       Uiso       1.00
     H1421          H  0.3023000  0.5883999 -0.1129900    0.00000       Uiso       1.00
     H1431          H  0.9527000  0.5288000 -0.3731200    0.00000       Uiso       1.00
     H1441          H  0.0508300  0.4781400 -0.1290700    0.00000       Uiso       1.00
     H1451          H  0.9208699  0.3645600 -0.0450900    0.00000       Uiso       1.00
     H1461          H  0.9628000  0.3726100 -0.3448400    0.00000       Uiso       1.00
     H1471          H  0.9314300  0.3954700 -0.4562900    0.00000       Uiso       1.00
     H1481          H  0.0385800  0.6385000 -0.5935600    0.00000       Uiso       1.00
     H1491          H  0.0593700  0.6251800 -0.2004400    0.00000       Uiso       1.00
     H1501          H  0.0036600  0.6036699 -0.2448400    0.00000       Uiso       1.00
     H1511          H  0.9017299  0.4183100 -0.0528300    0.00000       Uiso       1.00
     H1521          H  0.1017400  0.5915800 -0.3532800    0.00000       Uiso       1.00
     H1531          H  0.8262100  0.4790900 -0.2056200    0.00000       Uiso       1.00
     H1541          H  0.7525800  0.4316400 -0.1018900    0.00000       Uiso       1.00
     H1551          H  0.7827600  0.3495300  0.4733400    0.00000       Uiso       1.00
     H1561          H  0.8538800  0.3944200  0.3654300    0.00000       Uiso       1.00
     H1571          H  0.1698400  0.5212800 -0.5091600    0.00000       Uiso       1.00
     H1581          H  0.2451800  0.5610900 -0.4725400    0.00000       Uiso       1.00
     H1591          H  0.2374200  0.6633900 -0.0013100    0.00000       Uiso       1.00
     H1601          H  0.1629200  0.6243400 -0.0592600    0.00000       Uiso       1.00
     H1611          H  0.4106000  0.7074900  0.0372800    0.00000       Uiso       1.00
     H1621          H  0.7411201  2.3157299 -0.1438100    0.00000       Uiso       1.00
     H1631          H  0.6947201  2.2713001 -0.1805000    0.00000       Uiso       1.00
     H1641          H  0.7382600  1.2670799  0.4869200    0.00000       Uiso       1.00
     H1651          H  0.6972600  1.2150799 -0.1333900    0.00000       Uiso       1.00
     H1661          H  0.7504600  1.2118499 -0.3413600    0.00000       Uiso       1.00
     H1671          H  0.6772700  1.1151999  0.3641700    0.00000       Uiso       1.00
     H1681          H  0.6753801  1.1489600  0.0947100    0.00000       Uiso       1.00
     H1691          H  0.6925600  1.1655999  0.5350600    0.00000       Uiso       1.00
     H1701          H  0.8047900  1.1838800  0.0787900    0.00000       Uiso       1.00
     H1711          H  0.7873900  1.1505400  0.3995300    0.00000       Uiso       1.00
     H1721          H  0.7971200  1.2010000  0.5076200    0.00000       Uiso       1.00
     H1731          H  0.7257100  1.1027099  0.1777700    0.00000       Uiso       1.00
     H1741          H  0.7563000  1.1199900 -0.1669500    0.00000       Uiso       1.00
     H1751          H  0.7020900  1.1047100 -0.1959300    0.00000       Uiso       1.00
     H1761          H  0.8362700  1.2677900 -0.3927900    0.00000       Uiso       1.00
     H1771          H  0.8454200  1.2434400  0.0003500    0.00000       Uiso       1.00
     H1781          H  0.8565100  1.2939100  0.0282500    0.00000       Uiso       1.00
