data_DMTA-TPB2
_audit_creation_date              0000-00-00
_audit_creation_method            'LanYouShi'
_symmetry_space_group_name_H-M    'P1'
_cell_length_a                    37.3008003
_cell_length_b                    37.3051987
_cell_length_c                    3.5300000
_cell_angle_alpha                 90.0123978
_cell_angle_beta                  89.9865036
_cell_angle_gamma                 120.0155029
loop_
_atom_site_label
_atom_site_type_symbol
_atom_site_fract_x
_atom_site_fract_y
_atom_site_fract_z
_atom_site_U_iso_or_equiv
_atom_site_adp_type
_atom_site_occupancy
       C11          C  0.4770100  0.5175900  0.2106100    0.00000       Uiso       1.00
       C22          C  0.4633800  0.4747800  0.1706500    0.00000       Uiso       1.00
       C33          C  0.4912100  0.4604800  0.2323700    0.00000       Uiso       1.00
       C44          C  0.5319200  0.4871600  0.3546800    0.00000       Uiso       1.00
       C55          C  0.5448400  0.5291800  0.4153000    0.00000       Uiso       1.00
       C66          C  0.5174701  0.5440100  0.3432800    0.00000       Uiso       1.00
       O77          O  0.5831400  0.5549400  0.5881700    0.00000       Uiso       1.00
       C88          C  0.6117200  0.5902101  0.3742000    0.00000       Uiso       1.00
       O99          O  0.4237200  0.4456100  0.0409600    0.00000       Uiso       1.00
     C1010          C  0.3892000  0.4400200  0.2624800    0.00000       Uiso       1.00
     C1111          C  0.5613400  0.4716500  0.4103000    0.00000       Uiso       1.00
     C1212          C  0.4498700  0.5349301  0.1124600    0.00000       Uiso       1.00
     N1313          N  0.4624100  0.5741301  0.1525600    0.00000       Uiso       1.00
     N1414          N  0.5502600  0.4331800  0.3411700    0.00000       Uiso       1.00
     C1515          C  0.4368201  0.5923300  0.0883400    0.00000       Uiso       1.00
     C1616          C  0.5755900  0.4140400  0.3626500    0.00000       Uiso       1.00
     C1717          C  0.5579000  0.3724900  0.2537800    0.00000       Uiso       1.00
     C1818          C  0.5814300  0.3527600  0.2458900    0.00000       Uiso       1.00
     C1919          C  0.6234600  0.3741300  0.3510100    0.00000       Uiso       1.00
     C2020          C  0.6409100  0.4155600  0.4710700    0.00000       Uiso       1.00
     C2121          C  0.6174200  0.4353700  0.4760600    0.00000       Uiso       1.00
     C2222          C  0.4549201  0.6330200 -0.0447100    0.00000       Uiso       1.00
     C2323          C  0.4309000  0.6517900 -0.1033300    0.00000       Uiso       1.00
     C2424          C  0.3882500  0.6308400 -0.0147700    0.00000       Uiso       1.00
     C2525          C  0.3707300  0.5903200  0.1333500    0.00000       Uiso       1.00
     C2626          C  0.3945101  0.5711901  0.1794100    0.00000       Uiso       1.00
     C2727          C  0.6494300  0.3540100  0.3178100    0.00000       Uiso       1.00
     C2828          C  0.3621100  0.6505001 -0.0877000    0.00000       Uiso       1.00
     C2929          C  0.6904401  0.3769200  0.1991000    0.00000       Uiso       1.00
     C3030          C  0.3123800  0.6872901 -0.2629000    0.00000       Uiso       1.00
     C3131          C  0.4925601  0.9641401 -0.2698500    0.00000       Uiso       1.00
     C3232          C  0.5340201  0.9971201 -0.2799700    0.00000       Uiso       1.00
     C3333          C  0.5425000  0.0373900 -0.2003400    0.00000       Uiso       1.00
     C3434          C  0.5109800  0.0460800 -0.1020500    0.00000       Uiso       1.00
     C3535          C  0.4694000  0.0134400 -0.1115200    0.00000       Uiso       1.00
     C3636          C  0.4609700  0.9731901 -0.1864400    0.00000       Uiso       1.00
     O3737          O  0.4357600  0.0181400 -0.0039100    0.00000       Uiso       1.00
     C3838          C  0.4274700  0.0449400 -0.2296000    0.00000       Uiso       1.00
     O3939          O  0.5675901  0.9923500 -0.3894900    0.00000       Uiso       1.00
     C4040          C  0.5756401  0.9649101 -0.1711400    0.00000       Uiso       1.00
     C4141          C  0.5226200  0.0887200  0.0182100    0.00000       Uiso       1.00
     C4242          C  0.4809000  0.9202400 -0.3328100    0.00000       Uiso       1.00
     N4343          N  0.4460601  0.8917900 -0.1933400    0.00000       Uiso       1.00
     N4444          N  0.5602400  0.1138500  0.1271700    0.00000       Uiso       1.00
     C4545          C  0.4272501  0.8476501 -0.1956000    0.00000       Uiso       1.00
     C4646          C  0.5780600  0.1566800  0.2266400    0.00000       Uiso       1.00
     C4747          C  0.6149400  0.1747000  0.4287700    0.00000       Uiso       1.00
     C4848          C  0.6369100  0.2172200  0.4882700    0.00000       Uiso       1.00
     C4949          C  0.6272700  0.2440300  0.2974900    0.00000       Uiso       1.00
     C5050          C  0.5878000  0.2254900  0.1210300    0.00000       Uiso       1.00
     C5151          C  0.5630900  0.1821900  0.0902400    0.00000       Uiso       1.00
     C5252          C  0.3892801  0.8260201 -0.0149400    0.00000       Uiso       1.00
     C5353          C  0.3690200  0.7832701  0.0069500    0.00000       Uiso       1.00
     C5454          C  0.3817400  0.7598101 -0.1975500    0.00000       Uiso       1.00
     C5555          C  0.4218600  0.7816300 -0.3612700    0.00000       Uiso       1.00
     C5656          C  0.4448100  0.8253800 -0.3567600    0.00000       Uiso       1.00
     C5757          C  0.6546100  0.2906700  0.3105700    0.00000       Uiso       1.00
     C5858          C  0.3566300  0.7131401 -0.1896800    0.00000       Uiso       1.00
     C5959          C  0.6327000  0.3117300  0.3850300    0.00000       Uiso       1.00
     C6060          C  0.3196100  0.6261100 -0.1538300    0.00000       Uiso       1.00
     C6161          C  0.0475500  0.5248500 -0.2536800    0.00000       Uiso       1.00
     C6262          C  0.0214200  0.5423601 -0.2579400    0.00000       Uiso       1.00
     C6363          C  0.9791500  0.5172400 -0.1833700    0.00000       Uiso       1.00
     C6464          C  0.9619000  0.4752000 -0.0902500    0.00000       Uiso       1.00
     C6565          C  0.9879600  0.4576201 -0.0883200    0.00000       Uiso       1.00
     C6666          C  0.0302500  0.4827400 -0.1627700    0.00000       Uiso       1.00
     O6767          O  0.9745000  0.4165300  0.0193300    0.00000       Uiso       1.00
     C6868          C  0.9427700  0.3842100 -0.2032700    0.00000       Uiso       1.00
     O6969          O  0.0348300  0.5834500 -0.3651700    0.00000       Uiso       1.00
     C7070          C  0.0662900  0.6158100 -0.1409100    0.00000       Uiso       1.00
     C7171          C  0.9171900  0.4503500  0.0009500    0.00000       Uiso       1.00
     C7272          C  0.0925200  0.5500400 -0.3329300    0.00000       Uiso       1.00
     N7373          N  0.1176500  0.5360600 -0.2678100    0.00000       Uiso       1.00
     N7474          N  0.8924500  0.4652900 -0.0356800    0.00000       Uiso       1.00
     C7575          C  0.1618100  0.5625700 -0.2692800    0.00000       Uiso       1.00
     C7676          C  0.8483201  0.4398700 -0.0022400    0.00000       Uiso       1.00
     C7777          C  0.8248500  0.4555200  0.1620900    0.00000       Uiso       1.00
     C7878          C  0.7819800  0.4298200  0.2108400    0.00000       Uiso       1.00
     C7979          C  0.7612500  0.3884500  0.0760100    0.00000       Uiso       1.00
     C8080          C  0.7850500  0.3755000 -0.1285000    0.00000       Uiso       1.00
     C8181          C  0.8278900  0.3999200 -0.1545800    0.00000       Uiso       1.00
     C8282          C  0.1877200  0.5485001 -0.4101500    0.00000       Uiso       1.00
     C8383          C  0.2308900  0.5747700 -0.4098200    0.00000       Uiso       1.00
     C8484          C  0.2487800  0.6149300 -0.2523600    0.00000       Uiso       1.00
     C8585          C  0.2224500  0.6268300 -0.0843400    0.00000       Uiso       1.00
     C8686          C  0.1796500  0.6018500 -0.1029500    0.00000       Uiso       1.00
     C8787          C  0.7158300  0.3592800  0.1609900    0.00000       Uiso       1.00
     C8888          C  0.2946000  0.6434700 -0.2296700    0.00000       Uiso       1.00
     C8989          C  0.6984400  0.3153600  0.2114900    0.00000       Uiso       1.00
     C9090          C  0.3795300  0.6936100 -0.0939000    0.00000       Uiso       1.00
     O9191          O  0.7260402  2.3005803  0.1194800    0.00000       Uiso       1.00
     C9292          C  0.7256801  2.2650101  0.2717000    0.00000       Uiso       1.00
     C9393          C  0.7649902  2.2622802  0.1676600    0.00000       Uiso       1.00
     N9494          N  0.7656602  2.2254803  0.3084300    0.00000       Uiso       1.00
     C9595          C  0.8069001  2.2355402  0.4347500    0.00000       Uiso       1.00
     C9696          C  0.8344401  2.2822802  0.3987700    0.00000       Uiso       1.00
     C9797          C  0.8065702  2.2995403  0.2810100    0.00000       Uiso       1.00
     C9898          C  0.7347001  2.1849303  0.2650100    0.00000       Uiso       1.00
     O9999          O  0.7449902  2.1530001  0.2687000    0.00000       Uiso       1.00
     C1001          C  0.7149801  2.1082501  0.3627200    0.00000       Uiso       1.00
     C1011          C  0.6639501  2.0890100  0.2925300    0.00000       Uiso       1.00
     C1021          C  0.7339202  2.0762002  0.2921400    0.00000       Uiso       1.00
     C1031          C  0.7175701  2.1111200  0.6885700    0.00000       Uiso       1.00
     O1041          O  0.6991501  2.1766002  0.2119400    0.00000       Uiso       1.00
     O1051          O  1.2857201  1.7005402 -0.4274900    0.00000       Uiso       1.00
     C1061          C  1.2812902  1.7332902 -0.2608000    0.00000       Uiso       1.00
     C1071          C  1.2427901  1.7373900 -0.3806300    0.00000       Uiso       1.00
     C1081          C  1.2000601  1.7017901 -0.2724300    0.00000       Uiso       1.00
     C1091          C  1.1737301  1.7213901 -0.1861900    0.00000       Uiso       1.00
     C1101          C  1.2037700  1.7670301 -0.1091600    0.00000       Uiso       1.00
     N1111          N  1.2444000  1.7756401 -0.2439000    0.00000       Uiso       1.00
     C1121          C  1.2757201  1.8150301 -0.3416800    0.00000       Uiso       1.00
     O1131          O  1.2768701  1.8515701 -0.2025900    0.00000       Uiso       1.00
     C1141          C  1.2849001  1.8849502 -0.4608400    0.00000       Uiso       1.00
     C1151          C  1.2408701  1.8676301 -0.6378600    0.00000       Uiso       1.00
     C1161          C  1.3290901  1.8993101 -0.6400501    0.00000       Uiso       1.00
     C1171          C  1.2923201  1.9276502 -0.3063700    0.00000       Uiso       1.00
     O1181          O  1.3039701  1.8182701 -0.5374500    0.00000       Uiso       1.00
     H1191          H  0.4805900  0.4280100  0.1848700    0.00000       Uiso       1.00
     H1201          H  0.5277000  0.5762300  0.3991700    0.00000       Uiso       1.00
     H1211          H  0.5966700  0.6055501  0.2273800    0.00000       Uiso       1.00
     H1221          H  0.6279600  0.5807601  0.1694400    0.00000       Uiso       1.00
     H1231          H  0.6355200  0.6132201  0.5674101    0.00000       Uiso       1.00
     H1241          H  0.3749800  0.4093600  0.4033500    0.00000       Uiso       1.00
     H1251          H  0.3656000  0.4404200  0.0745500    0.00000       Uiso       1.00
     H1261          H  0.3976500  0.4644700  0.4784400    0.00000       Uiso       1.00
     H1271          H  0.5926100  0.4934200  0.4965000    0.00000       Uiso       1.00
     H1281          H  0.4194500  0.5148300 -0.0030300    0.00000       Uiso       1.00
     H1291          H  0.5258800  0.3556100  0.1634400    0.00000       Uiso       1.00
     H1301          H  0.5669800  0.3212300  0.1431000    0.00000       Uiso       1.00
     H1311          H  0.6728700  0.4328100  0.5622000    0.00000       Uiso       1.00
     H1321          H  0.6324300  0.4672000  0.5685000    0.00000       Uiso       1.00
     H1331          H  0.4875900  0.6498801 -0.1132900    0.00000       Uiso       1.00
     H1341          H  0.4458800  0.6823800 -0.2272900    0.00000       Uiso       1.00
     H1351          H  0.3388000  0.5733300  0.2239300    0.00000       Uiso       1.00
     H1361          H  0.3801000  0.5403600  0.2990000    0.00000       Uiso       1.00
     H1371          H  0.7025400  0.4090600  0.1248100    0.00000       Uiso       1.00
     H1381          H  0.5744600  0.0621100 -0.2104200    0.00000       Uiso       1.00
     H1391          H  0.4289100  0.9486400 -0.1783800    0.00000       Uiso       1.00
     H1401          H  0.3975200  0.0261800 -0.3783000    0.00000       Uiso       1.00
     H1411          H  0.4521400  0.0628000 -0.4396900    0.00000       Uiso       1.00
     H1421          H  0.4245700  0.0672900 -0.0434600    0.00000       Uiso       1.00
     H1431          H  0.5777600  0.9424101 -0.3615500    0.00000       Uiso       1.00
     H1441          H  0.5513800  0.9472401  0.0419800    0.00000       Uiso       1.00
     H1451          H  0.6059000  0.9831501 -0.0259500    0.00000       Uiso       1.00
     H1461          H  0.5001400  0.0987900  0.0246000    0.00000       Uiso       1.00
     H1471          H  0.5013101  0.9121200 -0.4778500    0.00000       Uiso       1.00
     H1481          H  0.6258300  0.1554400  0.5547500    0.00000       Uiso       1.00
     H1491          H  0.6609000  0.2287500  0.6905700    0.00000       Uiso       1.00
     H1501          H  0.5768700  0.2443800 -0.0113500    0.00000       Uiso       1.00
     H1511          H  0.5345000  0.1693400 -0.0683400    0.00000       Uiso       1.00
     H1521          H  0.3765201  0.8426801  0.1303700    0.00000       Uiso       1.00
     H1531          H  0.3435800  0.7684400  0.1923800    0.00000       Uiso       1.00
     H1541          H  0.4349600  0.7650101 -0.5012500    0.00000       Uiso       1.00
     H1551          H  0.4749200  0.8412501 -0.4903000    0.00000       Uiso       1.00
     H1561          H  0.6009900  0.2943500  0.4827900    0.00000       Uiso       1.00
     H1571          H  0.3053600  0.5928600 -0.1440600    0.00000       Uiso       1.00
     H1581          H  0.9597700  0.5312200 -0.1943600    0.00000       Uiso       1.00
     H1591          H  0.0496500  0.4688000 -0.1514600    0.00000       Uiso       1.00
     H1601          H  0.9558600  0.3671200 -0.3513900    0.00000       Uiso       1.00
     H1611          H  0.9290100  0.3957800 -0.4135000    0.00000       Uiso       1.00
     H1621          H  0.9175800  0.3620900 -0.0152300    0.00000       Uiso       1.00
     H1631          H  0.0915100  0.6380700 -0.3279000    0.00000       Uiso       1.00
     H1641          H  0.0800600  0.6043300  0.0702800    0.00000       Uiso       1.00
     H1651          H  0.0529400  0.6327100  0.0064500    0.00000       Uiso       1.00
     H1661          H  0.9044500  0.4186800  0.0916200    0.00000       Uiso       1.00
     H1671          H  0.1052200  0.5815900 -0.4276500    0.00000       Uiso       1.00
     H1681          H  0.8400601  0.4867900  0.2724200    0.00000       Uiso       1.00
     H1691          H  0.7657500  0.4420400  0.3708400    0.00000       Uiso       1.00
     H1701          H  0.7705600  0.3474800 -0.2896800    0.00000       Uiso       1.00
     H1711          H  0.8449900  0.3884900 -0.3123600    0.00000       Uiso       1.00
     H1721          H  0.1744700  0.5178301 -0.5317000    0.00000       Uiso       1.00
     H1731          H  0.2500000  0.5638701 -0.5386000    0.00000       Uiso       1.00
     H1741          H  0.2353900  0.6547000  0.0806300    0.00000       Uiso       1.00
     H1751          H  0.1603700  0.6121700  0.0326200    0.00000       Uiso       1.00
     H1761          H  0.4117500  0.7126901 -0.0176400    0.00000       Uiso       1.00
     H1771          H  0.6997501  2.2377801  0.1494500    0.00000       Uiso       1.00
     H1781          H  0.7225502  2.2656603  0.5696400    0.00000       Uiso       1.00
     H1791          H  0.7660701  2.2604001 -0.1298000    0.00000       Uiso       1.00
     H1801          H  0.8195902  2.2187903  0.2751500    0.00000       Uiso       1.00
     H1811          H  0.8051202  2.2253602  0.7239000    0.00000       Uiso       1.00
     H1821          H  0.8601501  2.2894101  0.2038200    0.00000       Uiso       1.00
     H1831          H  0.8507602  2.2975302  0.6562500    0.00000       Uiso       1.00
     H1841          H  0.8220401  2.3233602  0.0629400    0.00000       Uiso       1.00
     H1851          H  0.8019001  2.3161302  0.5108500    0.00000       Uiso       1.00
     H1861          H  0.6461501  2.0561900  0.3886200    0.00000       Uiso       1.00
     H1871          H  0.6504701  2.0870202  0.0138800    0.00000       Uiso       1.00
     H1881          H  0.6510901  2.1063602  0.4412500    0.00000       Uiso       1.00
     H1891          H  0.7407101  2.0684202  0.0122300    0.00000       Uiso       1.00
     H1901          H  0.7125502  2.0446203  0.4053400    0.00000       Uiso       1.00
     H1911          H  0.7651201  2.0878801  0.4209600    0.00000       Uiso       1.00
     H1921          H  0.7058501  2.1322901  0.7676200    0.00000       Uiso       1.00
     H1931          H  0.7515702  2.1249702  0.7685300    0.00000       Uiso       1.00
     H1941          H  0.6963502  2.0783501  0.7821300    0.00000       Uiso       1.00
     H1951          H  1.3076900  1.7623100 -0.3408400    0.00000       Uiso       1.00
     H1961          H  1.2820201  1.7300301  0.0346000    0.00000       Uiso       1.00
     H1971          H  1.2419901  1.7394201 -0.6768801    0.00000       Uiso       1.00
     H1981          H  1.1844101  1.6764301 -0.4774200    0.00000       Uiso       1.00
     H1991          H  1.2027501  1.6865801 -0.0242000    0.00000       Uiso       1.00
     H2002          H  1.1517200  1.7040201  0.0389300    0.00000       Uiso       1.00
     H2012          H  1.1531601  1.7191801 -0.4160800    0.00000       Uiso       1.00
     H2022          H  1.2047201  1.7725501  0.1898100    0.00000       Uiso       1.00
     H2032          H  1.1933501  1.7869302 -0.2477300    0.00000       Uiso       1.00
     H2042          H  1.2281600  1.8379201 -0.7791900    0.00000       Uiso       1.00
     H2052          H  1.2337002  1.8888102 -0.7869200    0.00000       Uiso       1.00
     H2062          H  1.2185401  1.8591001 -0.4006700    0.00000       Uiso       1.00
     H2072          H  1.3326201  1.8796701 -0.8465900    0.00000       Uiso       1.00
     H2082          H  1.3497001  1.8998002 -0.4133500    0.00000       Uiso       1.00
     H2092          H  1.3475802  1.9318702 -0.7303300    0.00000       Uiso       1.00
     H2102          H  1.2978101  1.9480901 -0.5534100    0.00000       Uiso       1.00
     H2112          H  1.3209101  1.9464402 -0.1488100    0.00000       Uiso       1.00
     H2122          H  1.2662201  1.9292701 -0.1834200    0.00000       Uiso       1.00
