data_crystal
 
_cell_length_a    37.17180
_cell_length_b    37.16020
_cell_length_c    6.71310
_cell_angle_alpha 90.12200
_cell_angle_beta  89.26800
_cell_angle_gamma 120.02200
 
_symmetry_space_group_name_Hall 'P 1'
_symmetry_space_group_name_H-M  'P 1'
 
loop_
_symmetry_equiv_pos_as_xyz
 'x,y,z' 
 
loop_
_atom_site_label
_atom_site_type_symbol
_atom_site_fract_x
_atom_site_fract_y
_atom_site_fract_z
_atom_site_charge
C          C       0.69630   0.90177   0.38191   0.0000000000
C          C       0.38155   0.68372   0.92807   0.0000000000
C          C       0.42729   0.70392   0.92762   0.0000000000
C          C       0.44757   0.69463   1.07594   0.0000000000
C          C       0.49097   0.71522   1.07897   0.0000000000
C          C       0.51448   0.74498   0.93318   0.0000000000
C          C       0.49415   0.75368   0.78242   0.0000000000
C          C       0.45087   0.73320   0.78029   0.0000000000
N          N       0.55880   0.76670   0.94496   0.0000000000
C          C       0.58316   0.79455   0.81647   0.0000000000
C          C       0.62869   0.81733   0.83640   0.0000000000
C          C       0.64905   0.81272   1.00196   0.0000000000
C          C       0.69267   0.83615   1.00802   0.0000000000
O          O       0.62531   0.78505   1.15610   0.0000000000
C          C       0.35831   0.64052   0.92811   0.0000000000
C          C       0.36346   0.23137  -0.31070   0.0000000000
C          C       0.04997   0.01842   0.25339   0.0000000000
C          C       0.09590   0.03782   0.24915   0.0000000000
C          C       0.11571   0.02287   0.37288   0.0000000000
C          C       0.15905   0.04168   0.37102   0.0000000000
C          C       0.18314   0.07539   0.24412   0.0000000000
C          C       0.16337   0.09001   0.11821   0.0000000000
C          C       0.12018   0.07127   0.12080   0.0000000000
N          N       0.22750   0.09526   0.25129   0.0000000000
C          C       0.25192   0.12507   0.13098   0.0000000000
C          C       0.29756   0.14686   0.14560   0.0000000000
C          C       0.31857   0.14126   0.30546   0.0000000000
C          C       0.36222   0.16513   0.30895   0.0000000000
O          O       0.29553   0.11301   0.45929   0.0000000000
C          C       0.02605   0.97539   0.26586   0.0000000000
C          C       0.02640   0.57226   0.07912   0.0000000000
C          C       0.71082   0.34675   0.59500   0.0000000000
C          C       0.75642   0.36484   0.58315   0.0000000000
C          C       0.77674   0.34969   0.70187   0.0000000000
C          C       0.82016   0.36923   0.69731   0.0000000000
C          C       0.84346   0.40371   0.57311   0.0000000000
C          C       0.82305   0.41799   0.45068   0.0000000000
C          C       0.78000   0.39861   0.45595   0.0000000000
N          N       0.88768   0.42567   0.58489   0.0000000000
C          C       0.91143   0.45890   0.48161   0.0000000000
C          C       0.95664   0.48241   0.50841   0.0000000000
C          C       0.97617   0.47511   0.66890   0.0000000000
C          C       0.01960   0.49895   0.68441   0.0000000000
O          O       0.95214   0.44311   0.80488   0.0000000000
C          C       0.68545   0.30366   0.59729   0.0000000000
C          C       0.10782   0.79230   0.36759   0.0000000000
C          C       0.31689   0.68632   0.93516   0.0000000000
C          C       0.29358   0.70918   0.94044   0.0000000000
C          C       0.30351   0.74095   1.07880   0.0000000000
C          C       0.28302   0.76368   1.07954   0.0000000000
C          C       0.25203   0.75505   0.94171   0.0000000000
C          C       0.24096   0.72260   0.80497   0.0000000000
C          C       0.26159   0.69975   0.80533   0.0000000000
N          N       0.23282   0.78009   0.94455   0.0000000000
C          C       0.20599   0.77752   0.81604   0.0000000000
C          C       0.18755   0.80454   0.82765   0.0000000000
C          C       0.19611   0.83356   0.98215   0.0000000000
C          C       0.17694   0.85791   0.97844   0.0000000000
O          O       0.22308   0.83727   1.13641   0.0000000000
C          C       0.36083   0.70679   0.93611   0.0000000000
C          C       0.77262   0.12469  -0.30050   0.0000000000
C          C       0.98579   0.02222   0.25630   0.0000000000
C          C       0.96309   0.04575   0.25907   0.0000000000
C          C       0.97441   0.07897   0.39038   0.0000000000
C          C       0.95367   0.10154   0.39159   0.0000000000
C          C       0.92100   0.09127   0.26136   0.0000000000
C          C       0.90884   0.05759   0.13115   0.0000000000
C          C       0.92970   0.03495   0.13102   0.0000000000
N          N       0.90086   0.11550   0.26637   0.0000000000
C          C       0.87208   0.11098   0.14501   0.0000000000
C          C       0.85253   0.13703   0.15914   0.0000000000
C          C       0.86057   0.16561   0.31508   0.0000000000
C          C       0.84058   0.18921   0.31388   0.0000000000
O          O       0.88786   0.16963   0.46834   0.0000000000
C          C       0.02970   0.04195   0.25081   0.0000000000
C          C       0.44323   0.46166   0.04189   0.0000000000
C          C       0.64867   0.35378   0.60922   0.0000000000
C          C       0.62752   0.37866   0.61360   0.0000000000
C          C       0.63958   0.41166   0.74730   0.0000000000
C          C       0.61987   0.43522   0.74927   0.0000000000
C          C       0.58764   0.42614   0.61787   0.0000000000
C          C       0.57481   0.39266   0.48581   0.0000000000
C          C       0.59457   0.36905   0.48469   0.0000000000
N          N       0.56883   0.45160   0.62167   0.0000000000
C          C       0.54093   0.44802   0.49711   0.0000000000
C          C       0.52241   0.47497   0.50641   0.0000000000
C          C       0.53088   0.50434   0.65884   0.0000000000
C          C       0.51155   0.52858   0.65224   0.0000000000
O          O       0.55760   0.50818   0.81460   0.0000000000
C          C       0.69240   0.37206   0.60431   0.0000000000
C          C       0.26580   0.31452   0.52087   0.0000000000
C          C       0.31493   0.61981   0.93195   0.0000000000
C          C       0.29101   0.57412   0.92416   0.0000000000
C          C       0.24752   0.55333   0.91765   0.0000000000
C          C       0.22495   0.51038   0.89698   0.0000000000
C          C       0.24527   0.48746   0.88298   0.0000000000
C          C       0.28878   0.50799   0.88824   0.0000000000
C          C       0.31144   0.55107   0.90779   0.0000000000
N          N       0.22080   0.44350   0.86051   0.0000000000
C          C       0.23647   0.41967   0.83153   0.0000000000
C          C       0.20989   0.37476   0.80196   0.0000000000
C          C       0.16713   0.35299   0.85122   0.0000000000
C          C       0.14384   0.31083   0.80098   0.0000000000
O          O       0.14894   0.37349   0.95060   0.0000000000
C          C       0.29460   0.64296   0.93270   0.0000000000
C          C       0.94503   0.65315  -0.05643   0.0000000000
C          C       0.98272   0.95531   0.27373   0.0000000000
C          C       0.95852   0.90965   0.27696   0.0000000000
C          C       0.91497   0.88866   0.28562   0.0000000000
C          C       0.89233   0.84554   0.26889   0.0000000000
C          C       0.91286   0.82297   0.24186   0.0000000000
C          C       0.95637   0.84379   0.23600   0.0000000000
C          C       0.97891   0.88677   0.25238   0.0000000000
N          N       0.88888   0.77898   0.21874   0.0000000000
C          C       0.90582   0.75633   0.18906   0.0000000000
C          C       0.88123   0.71125   0.16473   0.0000000000
C          C       0.83797   0.68817   0.20053   0.0000000000
C          C       0.81738   0.64554   0.16489   0.0000000000
O          O       0.81631   0.70776   0.27060   0.0000000000
C          C       0.96291   0.97890   0.26669   0.0000000000
C          C       0.58748   0.97609   0.27466   0.0000000000
C          C       0.64220   0.28516   0.60658   0.0000000000
C          C       0.61580   0.23957   0.59566   0.0000000000
C          C       0.57251   0.22060   0.62014   0.0000000000
C          C       0.54735   0.17776   0.59749   0.0000000000
C          C       0.56500   0.15338   0.54659   0.0000000000
C          C       0.60831   0.17221   0.52209   0.0000000000
C          C       0.63345   0.21491   0.54707   0.0000000000
N          N       0.53863   0.10953   0.52548   0.0000000000
C          C       0.55344   0.08502   0.49357   0.0000000000
C          C       0.52704   0.04003   0.47061   0.0000000000
C          C       0.48335   0.01891   0.49107   0.0000000000
C          C       0.46136   0.97592   0.45986   0.0000000000
O          O       0.46285   0.04094   0.54224   0.0000000000
C          C       0.62427   0.31047   0.61017   0.0000000000
C          C       0.31905   0.10729   0.60898   0.0000000000
C          C       0.63328   0.32430   0.10867   0.0000000000
C          C       0.58751   0.30858   0.11439   0.0000000000
C          C       0.56893   0.32109  -0.02971   0.0000000000
C          C       0.52552   0.30206  -0.04073   0.0000000000
C          C       0.49993   0.27025   0.09292   0.0000000000
C          C       0.51841   0.25884   0.24215   0.0000000000
C          C       0.56154   0.27783   0.25224   0.0000000000
N          N       0.45563   0.24872   0.06958   0.0000000000
C          C       0.43067   0.21737   0.18167   0.0000000000
C          C       0.38510   0.19413   0.15970   0.0000000000
C          C       0.36408   0.19966  -0.00039   0.0000000000
C          C       0.32040   0.17570  -0.00421   0.0000000000
O          O       0.38700   0.22885  -0.15097   0.0000000000
C          C       0.66164   0.36707   0.09372   0.0000000000
C          C       0.96537   0.45212   1.00478   0.0000000000
C          C       0.29176   0.64823   0.44639   0.0000000000
C          C       0.24617   0.63143   0.45195   0.0000000000
C          C       0.22705   0.64034   0.29629   0.0000000000
C          C       0.18388   0.62309   0.29507   0.0000000000
C          C       0.15918   0.59692   0.44995   0.0000000000
C          C       0.17831   0.58878   0.60913   0.0000000000
C          C       0.22148   0.60593   0.60962   0.0000000000
N          N       0.11488   0.57767   0.43696   0.0000000000
C          C       0.08924   0.55086   0.56590   0.0000000000
C          C       0.04367   0.53008   0.54531   0.0000000000
C          C       0.02389   0.53825   0.38734   0.0000000000
C          C       0.98037   0.51424   0.37293   0.0000000000
O          O       0.04793   0.56975   0.24785   0.0000000000
C          C       0.31804   0.69129   0.43693   0.0000000000
C          C       0.64783   0.78264   1.31993   0.0000000000
C          C       0.96305   0.98497   0.76815   0.0000000000
C          C       0.91766   0.96898   0.77340   0.0000000000
C          C       0.89893   0.97852   0.61813   0.0000000000
C          C       0.85575   0.96079   0.61331   0.0000000000
C          C       0.83078   0.93348   0.76422   0.0000000000
C          C       0.84954   0.92508   0.92381   0.0000000000
C          C       0.89262   0.94273   0.92808   0.0000000000
N          N       0.78656   0.91329   0.74800   0.0000000000
C          C       0.76147   0.88572   0.87549   0.0000000000
C          C       0.71602   0.86392   0.85568   0.0000000000
C          C       0.69566   0.86905   0.69130   0.0000000000
C          C       0.65202   0.84537   0.68479   0.0000000000
O          O       0.71926   0.89729   0.53854   0.0000000000
C          C       0.99019   0.02789   0.74688   0.0000000000
C          C       0.89414   0.19911   0.61955   0.0000000000
C          C       0.69227   0.31166   0.10027   0.0000000000
C          C       0.71042   0.28421   0.09808   0.0000000000
C          C       0.69670   0.25173  -0.03934   0.0000000000
C          C       0.71477   0.22669  -0.04867   0.0000000000
C          C       0.74701   0.23388   0.07914   0.0000000000
C          C       0.76133   0.26679   0.21582   0.0000000000
C          C       0.74328   0.29193   0.22426   0.0000000000
N          N       0.76522   0.20796   0.06407   0.0000000000
C          C       0.79416   0.21146   0.18142   0.0000000000
C          C       0.81312   0.18504   0.16433   0.0000000000
C          C       0.80504   0.15659   0.00802   0.0000000000
C          C       0.82504   0.13287   0.00886   0.0000000000
O          O       0.77785   0.15296  -0.14488   0.0000000000
C          C       0.64917   0.29670   0.11405   0.0000000000
C          C       0.56432   0.53835   0.96272   0.0000000000
C          C       0.35321   0.63990   0.43585   0.0000000000
C          C       0.37385   0.61468   0.43101   0.0000000000
C          C       0.35774   0.57846   0.31654   0.0000000000
C          C       0.37778   0.55531   0.30724   0.0000000000
C          C       0.41430   0.56806   0.41267   0.0000000000
C          C       0.43086   0.60449   0.52676   0.0000000000
C          C       0.41085   0.62774   0.53478   0.0000000000
N          N       0.43369   0.54327   0.40283   0.0000000000
C          C       0.46483   0.55003   0.51255   0.0000000000
C          C       0.48423   0.52400   0.50077   0.0000000000
C          C       0.47581   0.49471   0.34840   0.0000000000
C          C       0.49524   0.47057   0.35443   0.0000000000
O          O       0.44863   0.49056   0.19442   0.0000000000
C          C       0.30961   0.62230   0.44802   0.0000000000
C          C       0.22949   0.86683   1.28741   0.0000000000
C          C       0.02334   0.97484   0.76437   0.0000000000
C          C       0.04305   0.94875   0.76260   0.0000000000
C          C       0.02551   0.91175   0.65393   0.0000000000
C          C       0.04472   0.88782   0.64444   0.0000000000
C          C       0.08184   0.90049   0.74410   0.0000000000
C          C       0.09994   0.93778   0.85221   0.0000000000
C          C       0.08075   0.96187   0.86011   0.0000000000
N          N       0.10025   0.87480   0.73347   0.0000000000
C          C       0.13118   0.88066   0.84231   0.0000000000
C          C       0.14968   0.85387   0.82813   0.0000000000
C          C       0.14107   0.82495   0.67360   0.0000000000
C          C       0.16039   0.80066   0.67646   0.0000000000
O          O       0.11401   0.82146   0.52023   0.0000000000
C          C       0.97986   0.95816   0.77930   0.0000000000
C          C       0.77234   0.68169   0.29039   0.0000000000
C          C       0.70472   0.38207   0.08561   0.0000000000
C          C       0.73538   0.42668   0.06927   0.0000000000
C          C       0.77813   0.44024   0.05768   0.0000000000
C          C       0.80754   0.48241   0.04830   0.0000000000
C          C       0.79448   0.51160   0.04778   0.0000000000
C          C       0.75169   0.49796   0.04866   0.0000000000
C          C       0.72237   0.45594   0.05943   0.0000000000
N          N       0.82455   0.55486   0.05709   0.0000000000
C          C       0.81174   0.58123   0.07350   0.0000000000
C          C       0.83820   0.62568   0.09632   0.0000000000
C          C       0.88135   0.64819   0.06072   0.0000000000
C          C       0.90239   0.69120   0.09681   0.0000000000
O          O       0.90190   0.62753  -0.01102   0.0000000000
C          C       0.71921   0.35406   0.08741   0.0000000000
C          C       0.41863   0.01703   0.55217   0.0000000000
C          C       0.36131   0.70887   0.43252   0.0000000000
C          C       0.38908   0.75420   0.42418   0.0000000000
C          C       0.43241   0.77123   0.41323   0.0000000000
C          C       0.45875   0.81402   0.39714   0.0000000000
C          C       0.44203   0.84022   0.38666   0.0000000000
C          C       0.39874   0.82329   0.39392   0.0000000000
C          C       0.37253   0.78068   0.41364   0.0000000000
N          N       0.46936   0.88408   0.38330   0.0000000000
C          C       0.45499   0.90939   0.38431   0.0000000000
C          C       0.48148   0.95417   0.40604   0.0000000000
C          C       0.52495   0.97512   0.38265   0.0000000000
C          C       0.54720   0.01805   0.41824   0.0000000000
O          O       0.54456   0.95251   0.32671   0.0000000000
C          C       0.37827   0.68290   0.43057   0.0000000000
C          C       0.10555   0.34889   0.99376   0.0000000000
C          C       0.03342   0.04455   0.73958   0.0000000000
C          C       0.06251   0.08964   0.71456   0.0000000000
C          C       0.10565   0.10524   0.70498   0.0000000000
C          C       0.13330   0.14767   0.67790   0.0000000000
C          C       0.11835   0.17523   0.65582   0.0000000000
C          C       0.07519   0.15958   0.65912   0.0000000000
C          C       0.04760   0.11731   0.68987   0.0000000000
N          N       0.14718   0.21906   0.65625   0.0000000000
C          C       0.13430   0.24547   0.67664   0.0000000000
C          C       0.16182   0.29015   0.70580   0.0000000000
C          C       0.20452   0.31162   0.65816   0.0000000000
C          C       0.22798   0.35403   0.70733   0.0000000000
O          O       0.22235   0.29050   0.56197   0.0000000000
C          C       0.04922   0.01763   0.74742   0.0000000000
C          C       0.95347   1.91334   0.83507   0.0000000000
O          O       0.91997   1.89129   0.70977   0.0000000000
C          C       0.89486   1.85522   0.81930   0.0000000000
C          C       0.84920   1.83960   0.78341   0.0000000000
N          N       0.83487   1.80215   0.66767   0.0000000000
C          C       0.86652   1.79026   0.63960   0.0000000000
C          C       0.90365   1.82091   0.75737   0.0000000000
C          C       0.85219   1.74675   0.70782   0.0000000000
O          O       0.81394   1.72432   0.80819   0.0000000000
C          C       0.79524   1.68076   0.78497   0.0000000000
O          O       0.87410   1.73130   0.67384   0.0000000000
C          C       0.79751   1.78362   0.57439   0.0000000000
O          O       0.76524   1.79016   0.64290   0.0000000000
C          C       0.72333   1.75869   0.59817   0.0000000000
C          C       0.71402   1.71611   0.67164   0.0000000000
C          C       0.69372   1.76894   0.70603   0.0000000000
O          O       0.79205   1.76071   0.43331   0.0000000000
C          C       0.71491   1.75696   0.37617   0.0000000000
C          C       0.38458  -0.24901   1.99520   0.0000000000
O          O       0.40396  -0.22197   1.83818   0.0000000000
C          C       0.41922  -0.18404   1.93322   0.0000000000
C          C       0.46602  -0.15935   1.92437   0.0000000000
N          N       0.47627  -0.11695   1.88736   0.0000000000
C          C       0.44071  -0.11571   1.80400   0.0000000000
C          C       0.40321  -0.15844   1.83648   0.0000000000
C          C       0.43192  -0.08321   1.88494   0.0000000000
O          O       0.46407  -0.04581   1.95867   0.0000000000
C          C       0.45109  -0.01685   2.00615   0.0000000000
O          O       0.39657  -0.08889   1.87131   0.0000000000
C          C       0.51711  -0.08670   1.86510   0.0000000000
O          O       0.54850  -0.09555   1.91783   0.0000000000
C          C       0.58224  -0.08402   1.77841   0.0000000000
C          C       0.60713  -0.03731   1.74233   0.0000000000
C          C       0.61148  -0.09705   1.86421   0.0000000000
O          O       0.52627  -0.05240   1.80242   0.0000000000
C          C       0.56629  -0.10663   1.58192   0.0000000000
C          C       0.71977   0.41745   1.63798   0.0000000000
O          O       0.71818   0.44180   1.48524   0.0000000000
C          C       0.73392   0.48082   1.57286   0.0000000000
C          C       0.78093   0.50358   1.57827   0.0000000000
N          N       0.79359   0.54670   1.54907   0.0000000000
C          C       0.75994   0.55215   1.47295   0.0000000000
C          C       0.72265   0.50852   1.45532   0.0000000000
C          C       0.74887   0.57616   1.61462   0.0000000000
O          O       0.73866   0.56253   1.81301   0.0000000000
C          C       0.72252   0.58355   1.92791   0.0000000000
O          O       0.74771   0.60647   1.55261   0.0000000000
C          C       0.83343   0.57796   1.58332   0.0000000000
O          O       0.86221   0.56890   1.67152   0.0000000000
C          C       0.88970   0.56299   1.54126   0.0000000000
C          C       0.92171   0.56012   1.66726   0.0000000000
C          C       0.86658   0.52277   1.42575   0.0000000000
O          O       0.84322   0.61402   1.55399   0.0000000000
C          C       0.91270   0.59916   1.39746   0.0000000000
C          C       0.62125   1.25279   1.16934   0.0000000000
O          O       0.60911   1.22675   1.00712   0.0000000000
C          C       0.59276   1.18805   1.09633   0.0000000000
C          C       0.54622   1.16802   1.12274   0.0000000000
N          N       0.53009   1.12498   1.07226   0.0000000000
C          C       0.56013   1.11925   0.95439   0.0000000000
C          C       0.60114   1.15963   0.96882   0.0000000000
C          C       0.56539   1.08357   1.01886   0.0000000000
O          O       0.60337   1.09158   1.10026   0.0000000000
C          C       0.61259   1.05922   1.06999   0.0000000000
O          O       0.53752   1.04807   0.98973   0.0000000000
C          C       0.48832   1.09749   1.08574   0.0000000000
O          O       0.46288   1.10731   1.20498   0.0000000000
C          C       0.42020   1.09078   1.14946   0.0000000000
C          C       0.39598   1.04355   1.14283   0.0000000000
C          C       0.39925   1.10383   1.30462   0.0000000000
O          O       0.47356   1.06485   0.99635   0.0000000000
C          C       0.41748   1.10832   0.94951   0.0000000000
C          C       1.28341   1.57681   1.48240   0.0000000000
O          O       1.25254   1.55853   1.34156   0.0000000000
C          C       1.22284   1.52245   1.43628   0.0000000000
C          C       1.17993   1.51262   1.37328   0.0000000000
N          N       1.16513   1.47619   1.25087   0.0000000000
C          C       1.18884   1.45521   1.27424   0.0000000000
C          C       1.22879   1.48641   1.37197   0.0000000000
C          C       1.16628   1.41863   1.41011   0.0000000000
O          O       1.13171   1.41371   1.52069   0.0000000000
C          C       1.10198   1.37191   1.56737   0.0000000000
O          O       1.17906   1.39428   1.42521   0.0000000000
C          C       1.12823   1.45881   1.15373   0.0000000000
O          O       1.09748   1.46783   1.21776   0.0000000000
C          C       1.05536   1.43892   1.16535   0.0000000000
C          C       1.04253   1.39448   1.22470   0.0000000000
C          C       1.02754   1.45043   1.27999   0.0000000000
O          O       1.12184   1.43439   1.01897   0.0000000000
C          C       1.04885   1.44126   0.94376   0.0000000000
C          C       0.05474   0.08690   1.28771   0.0000000000
O          O       0.06448   0.11031   1.11623   0.0000000000
C          C       0.08397   0.15001   1.19386   0.0000000000
C          C       0.13061   0.17020   1.17738   0.0000000000
N          N       0.14446   0.21363   1.14518   0.0000000000
C          C       0.11029   0.22024   1.09168   0.0000000000
C          C       0.07205   0.17745   1.08271   0.0000000000
C          C       0.10409   0.24662   1.24008   0.0000000000
O          O       0.13442   0.28857   1.25049   0.0000000000
C          C       0.12088   0.31225   1.35907   0.0000000000
O          O       0.07256   0.23191   1.34504   0.0000000000
C          C       0.18587   0.24239   1.13156   0.0000000000
O          O       0.21522   0.23080   1.18273   0.0000000000
C          C       0.25115   0.24418   1.05617   0.0000000000
C          C       0.27718   0.29125   1.03852   0.0000000000
C          C       0.27809   0.22898   1.14798   0.0000000000
O          O       0.19703   0.27809   1.08171   0.0000000000
C          C       0.23865   0.22513   0.85017   0.0000000000
H          H       0.67531   0.87016   0.31188   0.0000000000
H          H       0.71872   0.92396   0.26396   0.0000000000
H          H       0.67650   0.91478   0.44451   0.0000000000
H          H       0.42869   0.67024   1.19448   0.0000000000
H          H       0.50743   0.70782   1.20067   0.0000000000
H          H       0.51302   0.77749   0.66164   0.0000000000
H          H       0.43471   0.74052   0.65681   0.0000000000
H          H       0.56949   0.80211   0.68265   0.0000000000
H          H       0.70983   0.83272   1.13961   0.0000000000
H          H       0.37466   0.62149   0.92497   0.0000000000
H          H       0.34424   0.19937  -0.38044   0.0000000000
H          H       0.38544   0.25419  -0.42797   0.0000000000
H          H       0.34187   0.24255  -0.25147   0.0000000000
H          H       0.09647  -0.00479   0.47579   0.0000000000
H          H       0.17494   0.02957   0.47323   0.0000000000
H          H       0.18263   0.11730   0.01338   0.0000000000
H          H       0.10463   0.08346   0.01686   0.0000000000
H          H       0.23825   0.13542   0.00758   0.0000000000
H          H       0.37995   0.16111   0.43614   0.0000000000
H          H       0.04176   0.95577   0.26986   0.0000000000
H          H       0.01031   0.54094   0.00049   0.0000000000
H          H       0.04947   0.59711  -0.02799   0.0000000000
H          H       0.00221   0.58074   0.12988   0.0000000000
H          H       0.75790   0.32146   0.80211   0.0000000000
H          H       0.83670   0.35709   0.79491   0.0000000000
H          H       0.84176   0.44555   0.34653   0.0000000000
H          H       0.76389   0.41060   0.35454   0.0000000000
H          H       0.89732   0.47055   0.36646   0.0000000000
H          H       0.03595   0.49310   0.81231   0.0000000000
H          H       0.69991   0.28291   0.59153   0.0000000000
H          H       0.12258   0.77311   0.41289   0.0000000000
H          H       0.12281   0.80963   0.22281   0.0000000000
H          H       0.07309   0.77084   0.34490   0.0000000000
H          H       0.32871   0.74853   1.19315   0.0000000000
H          H       0.29157   0.78947   1.19317   0.0000000000
H          H       0.21518   0.71488   0.69379   0.0000000000
H          H       0.25220   0.67330   0.69468   0.0000000000
H          H       0.19611   0.75395   0.69013   0.0000000000
H          H       0.18355   0.88172   1.10051   0.0000000000
H          H       0.78765   0.10567  -0.25649   0.0000000000
H          H       0.78796   0.14281  -0.44310   0.0000000000
H          H       0.73806   0.10297  -0.32646   0.0000000000
H          H       1.00095   0.08793   0.49849   0.0000000000
H          H       0.96339   0.12852   0.49931   0.0000000000
H          H       0.88194   0.04865   0.02532   0.0000000000
H          H       0.91931   0.00752   0.02552   0.0000000000
H          H       0.86127   0.08638   0.02352   0.0000000000
H          H       0.84666   0.21256   0.43760   0.0000000000
H          H       0.45828   0.44280   0.08855   0.0000000000
H          H       0.45846   0.47918  -0.10218   0.0000000000
H          H       0.40865   0.43985   0.01717   0.0000000000
H          H       0.66578   0.41950   0.85607   0.0000000000
H          H       0.63006   0.46202   0.85851   0.0000000000
H          H       0.54823   0.38471   0.37928   0.0000000000
H          H       0.58367   0.34178   0.37777   0.0000000000
H          H       0.52998   0.42344   0.37553   0.0000000000
H          H       0.51807   0.55271   0.77259   0.0000000000
H          H       0.27105   0.32529   0.35884   0.0000000000
H          H       0.28083   0.29475   0.54814   0.0000000000
H          H       0.28029   0.34276   0.62274   0.0000000000
H          H       0.23049   0.57164   0.92933   0.0000000000
H          H       0.18958   0.49365   0.89136   0.0000000000
H          H       0.30558   0.48945   0.87653   0.0000000000
H          H       0.34682   0.56759   0.91044   0.0000000000
H          H       0.27162   0.43346   0.82857   0.0000000000
H          H       0.10918   0.29245   0.83788   0.0000000000
H          H       0.25921   0.62640   0.93128   0.0000000000
H          H       0.94912   0.66364  -0.21869   0.0000000000
H          H       0.96162   0.63478  -0.03143   0.0000000000
H          H       0.95884   0.68155   0.04449   0.0000000000
H          H       0.89803   0.90689   0.30639   0.0000000000
H          H       0.85693   0.82854   0.27724   0.0000000000
H          H       0.97325   0.82544   0.21778   0.0000000000
H          H       1.01430   0.90344   0.24568   0.0000000000
H          H       0.94110   0.77140   0.18108   0.0000000000
H          H       0.78242   0.62603   0.19220   0.0000000000
H          H       0.92754   0.96275   0.26941   0.0000000000
H          H       0.59097   0.98606   0.11179   0.0000000000
H          H       0.60264   0.95629   0.29749   0.0000000000
H          H       0.60323   1.00482   0.37300   0.0000000000
H          H       0.55771   0.24024   0.65879   0.0000000000
H          H       0.51229   0.16252   0.62048   0.0000000000
H          H       0.62295   0.15251   0.48165   0.0000000000
H          H       0.66857   0.22983   0.52785   0.0000000000
H          H       0.58846   0.09827   0.48222   0.0000000000
H          H       0.42611   0.95785   0.47843   0.0000000000
H          H       0.58901   0.29584   0.61396   0.0000000000
H          H       0.35338   0.12483   0.56483   0.0000000000
H          H       0.30810   0.07277   0.62498   0.0000000000
H          H       0.31450   0.11970   0.75694   0.0000000000
H          H       0.58913   0.34698  -0.13959   0.0000000000
H          H       0.51085   0.31246  -0.15895   0.0000000000
H          H       0.49815   0.23392   0.35603   0.0000000000
H          H       0.57565   0.26793   0.37546   0.0000000000
H          H       0.44371   0.20641   0.30536   0.0000000000
H          H       0.30269   0.17956  -0.13203   0.0000000000
H          H       0.64988   0.39010   0.08801   0.0000000000
H          H       0.99136   0.48585   1.01589   0.0000000000
H          H       0.97729   0.43073   1.05508   0.0000000000
H          H       0.93813   0.44704   1.10430   0.0000000000
H          H       0.24668   0.66180   0.16934   0.0000000000
H          H       0.16858   0.63033   0.16718   0.0000000000
H          H       0.15865   0.56816   0.73831   0.0000000000
H          H       0.23656   0.59901   0.73962   0.0000000000
H          H       0.10165   0.54247   0.70192   0.0000000000
H          H       0.96373   0.52062   0.24834   0.0000000000
H          H       0.30435   0.71271   0.43267   0.0000000000
H          H       0.68241   0.80519   1.29524   0.0000000000
H          H       0.64222   0.74964   1.33340   0.0000000000
H          H       0.63693   0.79116   1.46267   0.0000000000
H          H       0.91892   1.00087   0.49460   0.0000000000
H          H       0.84076   0.96859   0.48600   0.0000000000
H          H       0.82956   0.90378   1.05046   0.0000000000
H          H       0.90744   0.93568   1.05873   0.0000000000
H          H       0.77440   0.87747   1.00996   0.0000000000
H          H       0.63482   0.84882   0.55341   0.0000000000
H          H       0.97723   0.04986   0.73521   0.0000000000
H          H       0.91242   0.23186   0.55473   0.0000000000
H          H       0.91227   0.19572   0.74679   0.0000000000
H          H       0.86275   0.19333   0.67812   0.0000000000
H          H       0.67049   0.24551  -0.14520   0.0000000000
H          H       0.70322   0.20026  -0.16089   0.0000000000
H          H       0.78776   0.27304   0.32030   0.0000000000
H          H       0.75535   0.31880   0.33418   0.0000000000
H          H       0.80596   0.23579   0.30427   0.0000000000
H          H       0.81896   0.10957  -0.11515   0.0000000000
H          H       0.58262   0.57081   0.89466   0.0000000000
H          H       0.58262   0.53541   1.09043   0.0000000000
H          H       0.53310   0.53298   1.02159   0.0000000000
H          H       0.32792   0.56766   0.22975   0.0000000000
H          H       0.36436   0.52589   0.21341   0.0000000000
H          H       0.46070   0.61509   0.61302   0.0000000000
H          H       0.42469   0.65749   0.62623   0.0000000000
H          H       0.47806   0.57689   0.62268   0.0000000000
H          H       0.48894   0.44667   0.23321   0.0000000000
H          H       0.24779   0.89955   1.22226   0.0000000000
H          H       0.24765   0.86345   1.41453   0.0000000000
H          H       0.19815   0.86113   1.34624   0.0000000000
H          H      -0.00486   0.90088   0.57186   0.0000000000
H          H       0.03011   0.85778   0.55504   0.0000000000
H          H       0.13033   0.94840   0.93364   0.0000000000
H          H       0.09586   0.99232   0.94627   0.0000000000
H          H       0.14493   0.90730   0.95357   0.0000000000
H          H       0.15401   0.77711   0.55334   0.0000000000
H          H       0.76475   0.64907   0.33590   0.0000000000
H          H       0.75715   0.68030   0.14194   0.0000000000
H          H       0.76002   0.69489   0.40913   0.0000000000
H          H       0.78911   0.41657   0.05588   0.0000000000
H          H       0.84205   0.49286   0.04110   0.0000000000
H          H       0.74066   0.52153   0.04045   0.0000000000
H          H       0.68780   0.44530   0.06025   0.0000000000
H          H       0.77705   0.57002   0.07057   0.0000000000
H          H       0.93740   0.71047   0.07075   0.0000000000
H          H       0.75402   0.36590   0.07817   0.0000000000
H          H       0.40863  -0.01635   0.59571   0.0000000000
H          H       0.40536   0.01737   0.40046   0.0000000000
H          H       0.40653   0.03095   0.66828   0.0000000000
H          H       0.44627   0.74995   0.41749   0.0000000000
H          H       0.49386   0.82753   0.39258   0.0000000000
H          H       0.38494   0.84457   0.38359   0.0000000000
H          H       0.33745   0.76727   0.42126   0.0000000000
H          H       0.42024   0.89689   0.36775   0.0000000000
H          H       0.58255   0.03582   0.40472   0.0000000000
H          H       0.41342   0.69679   0.42453   0.0000000000
H          H       0.09801   0.31649   1.04304   0.0000000000
H          H       0.08721   0.34642   0.85459   0.0000000000
H          H       0.09675   0.36410   1.11814   0.0000000000
H          H       0.11843   0.08316   0.71939   0.0000000000
H          H       0.16821   0.15992   0.67374   0.0000000000
H          H       0.06245   0.18151   0.63654   0.0000000000
H          H       0.01274   0.10531   0.69487   0.0000000000
H          H       0.09964   0.23434   0.67239   0.0000000000
H          H       0.26262   0.37232   0.66997   0.0000000000
H          H       0.08423   0.03052   0.73993   0.0000000000
H          H       0.97363   1.89820   0.83243   0.0000000000
H          H       0.94159   1.91206   0.99377   0.0000000000
H          H       0.90151   1.86191   0.98466   0.0000000000
H          H       0.84537   1.86368   0.69569   0.0000000000
H          H       0.83195   1.83298   0.93245   0.0000000000
H          H       0.87558   1.79329   0.47504   0.0000000000
H          H       0.90718   1.80507   0.89497   0.0000000000
H          H       0.93328   1.83474   0.66256   0.0000000000
H          H       0.81277   1.66882   0.87654   0.0000000000
H          H       0.79639   1.67323   0.62111   0.0000000000
H          H       0.76151   1.66514   0.83855   0.0000000000
H          H       0.73757   1.72003   0.78916   0.0000000000
H          H       0.71614   1.69752   0.54122   0.0000000000
H          H       0.68138   1.69889   0.73954   0.0000000000
H          H       0.67145   1.74143   0.80335   0.0000000000
H          H       0.67528   1.77572   0.59267   0.0000000000
H          H       0.71208   1.79742   0.80351   0.0000000000
H          H       0.72329   1.73452   0.30127   0.0000000000
H          H       0.73454   1.78927   0.30817   0.0000000000
H          H       0.68059   1.74580   0.35273   0.0000000000
H          H       0.36249  -0.24037   2.07264   0.0000000000
H          H       0.40887  -0.24594   2.10645   0.0000000000
H          H       0.40857  -0.18975   2.09586   0.0000000000
H          H       0.47819  -0.17087   1.79714   0.0000000000
H          H       0.47899  -0.16251   2.07214   0.0000000000
H          H       0.44624  -0.11039   1.63653   0.0000000000
H          H       0.37970  -0.15631   1.93925   0.0000000000
H          H       0.38808  -0.17324   1.68914   0.0000000000
H          H       0.42695  -0.02985   2.13188   0.0000000000
H          H       0.43687  -0.01101   1.86922   0.0000000000
H          H       0.47900   0.01360   2.05555   0.0000000000
H          H       0.60971  -0.03074   1.57540   0.0000000000
H          H       0.63956  -0.02434   1.80615   0.0000000000
H          H       0.59078  -0.02187   1.81842   0.0000000000
H          H       0.63439  -0.09484   1.74363   0.0000000000
H          H       0.59283  -0.13045   1.92075   0.0000000000
H          H       0.62925  -0.07568   1.99285   0.0000000000
H          H       0.57407  -0.13259   1.56945   0.0000000000
H          H       0.58167  -0.08379   1.45313   0.0000000000
H          H       0.53117  -0.12046   1.57593   0.0000000000
H          H       0.71004   0.42618   1.78367   0.0000000000
H          H       0.75294   0.42371   1.65232   0.0000000000
H          H       0.72100   0.47693   1.73120   0.0000000000
H          H       0.79376   0.49236   1.45265   0.0000000000
H          H       0.79134   0.49805   1.72854   0.0000000000
H          H       0.76883   0.56811   1.32096   0.0000000000
H          H       0.69380   0.50735   1.52307   0.0000000000
H          H       0.71683   0.49784   1.29370   0.0000000000
H          H       0.70099   0.56189   2.04984   0.0000000000
H          H       0.70439   0.59335   1.82746   0.0000000000
H          H       0.74923   0.61227   1.99863   0.0000000000
H          H       0.95253   0.57416   1.58188   0.0000000000
H          H       0.91058   0.52613   1.70283   0.0000000000
H          H       0.92610   0.57791   1.81188   0.0000000000
H          H       0.87718   0.50030   1.47587   0.0000000000
H          H       0.87342   0.52950   1.25973   0.0000000000
H          H       0.83177   0.50829   1.45482   0.0000000000
H          H       0.89258   0.59429   1.26207   0.0000000000
H          H       0.94303   0.60104   1.34758   0.0000000000
H          H       0.91976   0.62930   1.47474   0.0000000000
H          H       0.63789   1.24273   1.27809   0.0000000000
H          H       0.59267   1.25043   1.24679   0.0000000000
H          H       0.60757   1.19158   1.24809   0.0000000000
H          H       0.53355   1.18289   1.01720   0.0000000000
H          H       0.53852   1.17172   1.28372   0.0000000000
H          H       0.55001   1.11436   0.79231   0.0000000000
H          H       0.62527   1.15381   1.04213   0.0000000000
H          H       0.61278   1.17434   0.81552   0.0000000000
H          H       0.60330   1.04634   0.91309   0.0000000000
H          H       0.59454   1.03335   1.18349   0.0000000000
H          H       0.64732   1.07198   1.08908   0.0000000000
H          H       0.41351   1.03071   1.22784   0.0000000000
H          H       0.39228   1.03286   0.98131   0.0000000000
H          H       0.36400   1.03166   1.21436   0.0000000000
H          H       0.37999   1.07672   1.41034   0.0000000000
H          H       0.37810   1.11341   1.22815   0.0000000000
H          H       0.42384   1.13122   1.39249   0.0000000000
H          H       0.42800   1.09441   0.82597   0.0000000000
H          H       0.43840   1.14354   0.94951   0.0000000000
H          H       0.38400   1.10015   0.92305   0.0000000000
H          H       1.30386   1.56202   1.47488   0.0000000000
H          H       1.26863   1.57150   1.63727   0.0000000000
H          H       1.22580   1.52641   1.60479   0.0000000000
H          H       1.18192   1.53952   1.28301   0.0000000000
H          H       1.15937   1.50649   1.51104   0.0000000000
H          H       1.19538   1.44532   1.12353   0.0000000000
H          H       1.23471   1.47180   1.50764   0.0000000000
H          H       1.25615   1.49818   1.26287   0.0000000000
H          H       1.11837   1.35563   1.63150   0.0000000000
H          H       1.08494   1.35526   1.42645   0.0000000000
H          H       1.07870   1.37122   1.68172   0.0000000000
H          H       1.06590   1.39486   1.33424   0.0000000000
H          H       1.04172   1.37626   1.08638   0.0000000000
H          H       1.01037   1.37910   1.29789   0.0000000000
H          H       1.00558   1.42338   1.38049   0.0000000000
H          H       1.00866   1.45767   1.17135   0.0000000000
H          H       1.04730   1.47896   1.37495   0.0000000000
H          H       1.05835   1.42062   0.85914   0.0000000000
H          H       1.06864   1.47475   0.88993   0.0000000000
H          H       1.01468   1.43016   0.91599   0.0000000000
H          H       0.03672   0.09646   1.39301   0.0000000000
H          H       0.08456   0.09299   1.36314   0.0000000000
H          H       0.07460   0.14848   1.35734   0.0000000000
H          H       0.13975   0.15709   1.04491   0.0000000000
H          H       0.14323   0.16475   1.32111   0.0000000000
H          H       0.11676   0.23558   0.93849   0.0000000000
H          H       0.04459   0.17750   1.15997   0.0000000000
H          H       0.06386   0.16596   0.92308   0.0000000000
H          H       0.09951   0.29266   1.48651   0.0000000000
H          H       0.10327   0.32228   1.25636   0.0000000000
H          H       0.14892   0.34094   1.42207   0.0000000000
H          H       0.28210   0.30062   0.87451   0.0000000000
H          H       0.30857   0.30243   1.11097   0.0000000000
H          H       0.26036   0.30598   1.11684   0.0000000000
H          H       0.30090   0.22962   1.03092   0.0000000000
H          H       0.25765   0.19582   1.20501   0.0000000000
H          H       0.29604   0.25002   1.27724   0.0000000000
H          H       0.24791   0.20036   0.83007   0.0000000000
H          H       0.25508   0.25039   0.73210   0.0000000000
H          H       0.20358   0.21036   0.83391   0.0000000000
