data_DMTA-TPB4
_audit_creation_date              0000-00-00
_audit_creation_method            'LanYouShi'
_symmetry_space_group_name_H-M    'P1'
_cell_length_a                    37.1717987
_cell_length_b                    37.1601982
_cell_length_c                    6.7131000
_cell_angle_alpha                 90.1220016
_cell_angle_beta                  89.2679977
_cell_angle_gamma                 120.0220032
loop_
_atom_site_label
_atom_site_type_symbol
_atom_site_fract_x
_atom_site_fract_y
_atom_site_fract_z
_atom_site_U_iso_or_equiv
_atom_site_adp_type
_atom_site_occupancy
        C1          C  0.6963001  0.9017701  0.3819100    0.00000       Uiso       1.00
        C2          C  0.3815500  0.6837201  0.9280700    0.00000       Uiso       1.00
        C3          C  0.4272901  0.7039201  0.9276200    0.00000       Uiso       1.00
        C4          C  0.4475700  0.6946300  1.0759400    0.00000       Uiso       1.00
        C5          C  0.4909700  0.7152200  1.0789701    0.00000       Uiso       1.00
        C6          C  0.5144801  0.7449800  0.9331800    0.00000       Uiso       1.00
        C7          C  0.4941501  0.7536801  0.7824200    0.00000       Uiso       1.00
        C8          C  0.4508700  0.7332001  0.7802900    0.00000       Uiso       1.00
        N1          N  0.5588000  0.7667001  0.9449601    0.00000       Uiso       1.00
        C9          C  0.5831600  0.7945501  0.8164700    0.00000       Uiso       1.00
       C10          C  0.6286901  0.8173301  0.8364000    0.00000       Uiso       1.00
       C11          C  0.6490501  0.8127201  1.0019600    0.00000       Uiso       1.00
       C12          C  0.6926700  0.8361501  1.0080200    0.00000       Uiso       1.00
        O1          O  0.6253101  0.7850501  1.1561000    0.00000       Uiso       1.00
       C13          C  0.3583100  0.6405200  0.9281100    0.00000       Uiso       1.00
       C14          C  0.3634600  0.2313700 -0.3107000    0.00000       Uiso       1.00
       C15          C  0.0499700  0.0184200  0.2533900    0.00000       Uiso       1.00
       C16          C  0.0959000  0.0378200  0.2491500    0.00000       Uiso       1.00
       C17          C  0.1157100  0.0228700  0.3728800    0.00000       Uiso       1.00
       C18          C  0.1590500  0.0416800  0.3710200    0.00000       Uiso       1.00
       C19          C  0.1831400  0.0753900  0.2441200    0.00000       Uiso       1.00
       C20          C  0.1633700  0.0900100  0.1182100    0.00000       Uiso       1.00
       C21          C  0.1201800  0.0712700  0.1208000    0.00000       Uiso       1.00
        N2          N  0.2275000  0.0952600  0.2512900    0.00000       Uiso       1.00
       C22          C  0.2519200  0.1250700  0.1309800    0.00000       Uiso       1.00
       C23          C  0.2975600  0.1468600  0.1456000    0.00000       Uiso       1.00
       C24          C  0.3185700  0.1412600  0.3054600    0.00000       Uiso       1.00
       C25          C  0.3622200  0.1651300  0.3089500    0.00000       Uiso       1.00
        O2          O  0.2955300  0.1130100  0.4592900    0.00000       Uiso       1.00
       C26          C  0.0260501  0.9753901  0.2658600    0.00000       Uiso       1.00
       C27          C  0.0264000  0.5722601  0.0791200    0.00000       Uiso       1.00
       C28          C  0.7108200  0.3467500  0.5950000    0.00000       Uiso       1.00
       C29          C  0.7564200  0.3648400  0.5831500    0.00000       Uiso       1.00
       C30          C  0.7767401  0.3496900  0.7018700    0.00000       Uiso       1.00
       C31          C  0.8201600  0.3692300  0.6973100    0.00000       Uiso       1.00
       C32          C  0.8434601  0.4037100  0.5731100    0.00000       Uiso       1.00
       C33          C  0.8230500  0.4179900  0.4506800    0.00000       Uiso       1.00
       C34          C  0.7800001  0.3986101  0.4559500    0.00000       Uiso       1.00
        N3          N  0.8876801  0.4256700  0.5848900    0.00000       Uiso       1.00
       C35          C  0.9114301  0.4589000  0.4816100    0.00000       Uiso       1.00
       C36          C  0.9566401  0.4824100  0.5084100    0.00000       Uiso       1.00
       C37          C  0.9761701  0.4751100  0.6689000    0.00000       Uiso       1.00
       C38          C  0.0196000  0.4989500  0.6844100    0.00000       Uiso       1.00
        O3          O  0.9521400  0.4431100  0.8048800    0.00000       Uiso       1.00
       C39          C  0.6854501  0.3036600  0.5972900    0.00000       Uiso       1.00
       C40          C  0.1078200  0.7923001  0.3675900    0.00000       Uiso       1.00
       C41          C  0.3168901  0.6863201  0.9351600    0.00000       Uiso       1.00
       C42          C  0.2935800  0.7091801  0.9404400    0.00000       Uiso       1.00
       C43          C  0.3035100  0.7409500  1.0788001    0.00000       Uiso       1.00
       C44          C  0.2830200  0.7636800  1.0795400    0.00000       Uiso       1.00
       C45          C  0.2520300  0.7550501  0.9417100    0.00000       Uiso       1.00
       C46          C  0.2409600  0.7226000  0.8049700    0.00000       Uiso       1.00
       C47          C  0.2615900  0.6997501  0.8053300    0.00000       Uiso       1.00
        N4          N  0.2328200  0.7800901  0.9445500    0.00000       Uiso       1.00
       C48          C  0.2059901  0.7775201  0.8160400    0.00000       Uiso       1.00
       C49          C  0.1875501  0.8045401  0.8276500    0.00000       Uiso       1.00
       C50          C  0.1961100  0.8335600  0.9821500    0.00000       Uiso       1.00
       C51          C  0.1769400  0.8579100  0.9784400    0.00000       Uiso       1.00
        O4          O  0.2230800  0.8372701  1.1364100    0.00000       Uiso       1.00
       C52          C  0.3608300  0.7067900  0.9361100    0.00000       Uiso       1.00
       C53          C  0.7726200  0.1246900 -0.3005000    0.00000       Uiso       1.00
       C54          C  0.9857900  0.0222200  0.2563000    0.00000       Uiso       1.00
       C55          C  0.9630900  0.0457500  0.2590700    0.00000       Uiso       1.00
       C56          C  0.9744101  0.0789700  0.3903800    0.00000       Uiso       1.00
       C57          C  0.9536700  0.1015400  0.3915900    0.00000       Uiso       1.00
       C58          C  0.9210001  0.0912700  0.2613600    0.00000       Uiso       1.00
       C59          C  0.9088401  0.0575900  0.1311500    0.00000       Uiso       1.00
       C60          C  0.9297000  0.0349500  0.1310200    0.00000       Uiso       1.00
        N5          N  0.9008600  0.1155000  0.2663700    0.00000       Uiso       1.00
       C61          C  0.8720800  0.1109800  0.1450100    0.00000       Uiso       1.00
       C62          C  0.8525300  0.1370300  0.1591400    0.00000       Uiso       1.00
       C63          C  0.8605700  0.1656100  0.3150800    0.00000       Uiso       1.00
       C64          C  0.8405800  0.1892100  0.3138800    0.00000       Uiso       1.00
        O5          O  0.8878601  0.1696300  0.4683400    0.00000       Uiso       1.00
       C65          C  0.0297000  0.0419500  0.2508100    0.00000       Uiso       1.00
       C66          C  0.4432300  0.4616600  0.0418900    0.00000       Uiso       1.00
       C67          C  0.6486701  0.3537800  0.6092200    0.00000       Uiso       1.00
       C68          C  0.6275201  0.3786600  0.6136000    0.00000       Uiso       1.00
       C69          C  0.6395800  0.4116600  0.7473000    0.00000       Uiso       1.00
       C70          C  0.6198701  0.4352200  0.7492700    0.00000       Uiso       1.00
       C71          C  0.5876400  0.4261400  0.6178700    0.00000       Uiso       1.00
       C72          C  0.5748100  0.3926600  0.4858100    0.00000       Uiso       1.00
       C73          C  0.5945700  0.3690500  0.4846900    0.00000       Uiso       1.00
        N6          N  0.5688300  0.4516000  0.6216700    0.00000       Uiso       1.00
       C74          C  0.5409300  0.4480200  0.4971100    0.00000       Uiso       1.00
       C75          C  0.5224100  0.4749700  0.5064100    0.00000       Uiso       1.00
       C76          C  0.5308800  0.5043401  0.6588400    0.00000       Uiso       1.00
       C77          C  0.5115501  0.5285801  0.6522400    0.00000       Uiso       1.00
        O6          O  0.5576000  0.5081800  0.8146000    0.00000       Uiso       1.00
       C78          C  0.6924000  0.3720600  0.6043100    0.00000       Uiso       1.00
       C79          C  0.2658000  0.3145200  0.5208700    0.00000       Uiso       1.00
       C80          C  0.3149300  0.6198100  0.9319500    0.00000       Uiso       1.00
       C81          C  0.2910100  0.5741200  0.9241600    0.00000       Uiso       1.00
       C82          C  0.2475200  0.5533301  0.9176500    0.00000       Uiso       1.00
       C83          C  0.2249500  0.5103800  0.8969800    0.00000       Uiso       1.00
       C84          C  0.2452700  0.4874600  0.8829800    0.00000       Uiso       1.00
       C85          C  0.2887800  0.5079901  0.8882400    0.00000       Uiso       1.00
       C86          C  0.3114401  0.5510701  0.9077900    0.00000       Uiso       1.00
        N7          N  0.2208000  0.4435000  0.8605100    0.00000       Uiso       1.00
       C87          C  0.2364700  0.4196700  0.8315300    0.00000       Uiso       1.00
       C88          C  0.2098900  0.3747600  0.8019600    0.00000       Uiso       1.00
       C89          C  0.1671300  0.3529900  0.8512200    0.00000       Uiso       1.00
       C90          C  0.1438400  0.3108300  0.8009800    0.00000       Uiso       1.00
        O7          O  0.1489400  0.3734900  0.9506000    0.00000       Uiso       1.00
       C91          C  0.2946000  0.6429600  0.9327000    0.00000       Uiso       1.00
       C92          C  0.9450300  0.6531500 -0.0564300    0.00000       Uiso       1.00
       C93          C  0.9827201  0.9553100  0.2737300    0.00000       Uiso       1.00
       C94          C  0.9585201  0.9096500  0.2769600    0.00000       Uiso       1.00
       C95          C  0.9149701  0.8886601  0.2856200    0.00000       Uiso       1.00
       C96          C  0.8923301  0.8455400  0.2688900    0.00000       Uiso       1.00
       C97          C  0.9128601  0.8229701  0.2418600    0.00000       Uiso       1.00
       C98          C  0.9563701  0.8437901  0.2360000    0.00000       Uiso       1.00
       C99          C  0.9789101  0.8867701  0.2523800    0.00000       Uiso       1.00
        N8          N  0.8888801  0.7789801  0.2187400    0.00000       Uiso       1.00
      C100          C  0.9058201  0.7563301  0.1890600    0.00000       Uiso       1.00
      C101          C  0.8812301  0.7112500  0.1647300    0.00000       Uiso       1.00
      C102          C  0.8379701  0.6881701  0.2005300    0.00000       Uiso       1.00
      C103          C  0.8173801  0.6455401  0.1648900    0.00000       Uiso       1.00
        O8          O  0.8163101  0.7077600  0.2706000    0.00000       Uiso       1.00
      C104          C  0.9629101  0.9789001  0.2666900    0.00000       Uiso       1.00
      C105          C  0.5874801  0.9760901  0.2746600    0.00000       Uiso       1.00
      C106          C  0.6422001  0.2851600  0.6065800    0.00000       Uiso       1.00
      C107          C  0.6158000  0.2395700  0.5956600    0.00000       Uiso       1.00
      C108          C  0.5725100  0.2206000  0.6201400    0.00000       Uiso       1.00
      C109          C  0.5473500  0.1777600  0.5974900    0.00000       Uiso       1.00
      C110          C  0.5650000  0.1533800  0.5465900    0.00000       Uiso       1.00
      C111          C  0.6083100  0.1722100  0.5220900    0.00000       Uiso       1.00
      C112          C  0.6334500  0.2149100  0.5470700    0.00000       Uiso       1.00
        N9          N  0.5386300  0.1095300  0.5254800    0.00000       Uiso       1.00
      C113          C  0.5534400  0.0850200  0.4935700    0.00000       Uiso       1.00
      C114          C  0.5270400  0.0400300  0.4706100    0.00000       Uiso       1.00
      C115          C  0.4833500  0.0189100  0.4910700    0.00000       Uiso       1.00
      C116          C  0.4613601  0.9759201  0.4598600    0.00000       Uiso       1.00
        O9          O  0.4628500  0.0409400  0.5422400    0.00000       Uiso       1.00
      C117          C  0.6242700  0.3104700  0.6101700    0.00000       Uiso       1.00
      C118          C  0.3190500  0.1072900  0.6089800    0.00000       Uiso       1.00
      C119          C  0.6332800  0.3243000  0.1086700    0.00000       Uiso       1.00
      C120          C  0.5875100  0.3085800  0.1143900    0.00000       Uiso       1.00
      C121          C  0.5689300  0.3210900 -0.0297100    0.00000       Uiso       1.00
      C122          C  0.5255200  0.3020600 -0.0407300    0.00000       Uiso       1.00
      C123          C  0.4999300  0.2702500  0.0929200    0.00000       Uiso       1.00
      C124          C  0.5184100  0.2588400  0.2421500    0.00000       Uiso       1.00
      C125          C  0.5615401  0.2778300  0.2522400    0.00000       Uiso       1.00
       N10          N  0.4556300  0.2487200  0.0695800    0.00000       Uiso       1.00
      C126          C  0.4306700  0.2173700  0.1816700    0.00000       Uiso       1.00
      C127          C  0.3851000  0.1941300  0.1597000    0.00000       Uiso       1.00
      C128          C  0.3640800  0.1996600 -0.0003900    0.00000       Uiso       1.00
      C129          C  0.3204000  0.1757000 -0.0042100    0.00000       Uiso       1.00
       O10          O  0.3870000  0.2288500 -0.1509700    0.00000       Uiso       1.00
      C130          C  0.6616400  0.3670700  0.0937200    0.00000       Uiso       1.00
      C131          C  0.9653700  0.4521200  1.0047801    0.00000       Uiso       1.00
      C132          C  0.2917601  0.6482301  0.4463900    0.00000       Uiso       1.00
      C133          C  0.2461701  0.6314301  0.4519500    0.00000       Uiso       1.00
      C134          C  0.2270501  0.6403401  0.2962900    0.00000       Uiso       1.00
      C135          C  0.1838800  0.6230900  0.2950700    0.00000       Uiso       1.00
      C136          C  0.1591800  0.5969200  0.4499500    0.00000       Uiso       1.00
      C137          C  0.1783100  0.5887800  0.6091300    0.00000       Uiso       1.00
      C138          C  0.2214800  0.6059300  0.6096200    0.00000       Uiso       1.00
       N11          N  0.1148800  0.5776700  0.4369600    0.00000       Uiso       1.00
      C139          C  0.0892400  0.5508600  0.5659000    0.00000       Uiso       1.00
      C140          C  0.0436700  0.5300800  0.5453100    0.00000       Uiso       1.00
      C141          C  0.0238900  0.5382500  0.3873400    0.00000       Uiso       1.00
      C142          C  0.9803700  0.5142400  0.3729300    0.00000       Uiso       1.00
       O11          O  0.0479300  0.5697501  0.2478500    0.00000       Uiso       1.00
      C143          C  0.3180400  0.6912900  0.4369300    0.00000       Uiso       1.00
      C144          C  0.6478301  0.7826401  1.3199301    0.00000       Uiso       1.00
      C145          C  0.9630501  0.9849701  0.7681500    0.00000       Uiso       1.00
      C146          C  0.9176601  0.9689801  0.7734000    0.00000       Uiso       1.00
      C147          C  0.8989301  0.9785201  0.6181300    0.00000       Uiso       1.00
      C148          C  0.8557501  0.9607901  0.6133100    0.00000       Uiso       1.00
      C149          C  0.8307801  0.9334801  0.7642201    0.00000       Uiso       1.00
      C150          C  0.8495401  0.9250801  0.9238099    0.00000       Uiso       1.00
      C151          C  0.8926201  0.9427301  0.9280800    0.00000       Uiso       1.00
       N12          N  0.7865601  0.9132900  0.7480000    0.00000       Uiso       1.00
      C152          C  0.7614701  0.8857201  0.8754900    0.00000       Uiso       1.00
      C153          C  0.7160200  0.8639200  0.8556800    0.00000       Uiso       1.00
      C154          C  0.6956601  0.8690501  0.6913000    0.00000       Uiso       1.00
      C155          C  0.6520201  0.8453701  0.6847900    0.00000       Uiso       1.00
       O12          O  0.7192600  0.8972901  0.5385400    0.00000       Uiso       1.00
      C156          C  0.9901901  0.0278900  0.7468800    0.00000       Uiso       1.00
      C157          C  0.8941401  0.1991100  0.6195500    0.00000       Uiso       1.00
      C158          C  0.6922700  0.3116600  0.1002700    0.00000       Uiso       1.00
      C159          C  0.7104200  0.2842100  0.0980800    0.00000       Uiso       1.00
      C160          C  0.6967000  0.2517300 -0.0393400    0.00000       Uiso       1.00
      C161          C  0.7147700  0.2266900 -0.0486700    0.00000       Uiso       1.00
      C162          C  0.7470101  0.2338800  0.0791400    0.00000       Uiso       1.00
      C163          C  0.7613300  0.2667900  0.2158200    0.00000       Uiso       1.00
      C164          C  0.7432801  0.2919300  0.2242600    0.00000       Uiso       1.00
       N13          N  0.7652200  0.2079600  0.0640700    0.00000       Uiso       1.00
      C165          C  0.7941600  0.2114600  0.1814200    0.00000       Uiso       1.00
      C166          C  0.8131201  0.1850400  0.1643300    0.00000       Uiso       1.00
      C167          C  0.8050401  0.1565900  0.0080200    0.00000       Uiso       1.00
      C168          C  0.8250400  0.1328700  0.0088600    0.00000       Uiso       1.00
       O13          O  0.7778500  0.1529600 -0.1448800    0.00000       Uiso       1.00
      C169          C  0.6491700  0.2967000  0.1140500    0.00000       Uiso       1.00
      C170          C  0.5643200  0.5383500  0.9627200    0.00000       Uiso       1.00
      C171          C  0.3532101  0.6399001  0.4358500    0.00000       Uiso       1.00
      C172          C  0.3738500  0.6146801  0.4310100    0.00000       Uiso       1.00
      C173          C  0.3577400  0.5784600  0.3165400    0.00000       Uiso       1.00
      C174          C  0.3777801  0.5553101  0.3072400    0.00000       Uiso       1.00
      C175          C  0.4143001  0.5680600  0.4126700    0.00000       Uiso       1.00
      C176          C  0.4308600  0.6044900  0.5267600    0.00000       Uiso       1.00
      C177          C  0.4108500  0.6277400  0.5347800    0.00000       Uiso       1.00
       N14          N  0.4336901  0.5432701  0.4028300    0.00000       Uiso       1.00
      C178          C  0.4648300  0.5500300  0.5125500    0.00000       Uiso       1.00
      C179          C  0.4842300  0.5240000  0.5007700    0.00000       Uiso       1.00
      C180          C  0.4758101  0.4947100  0.3484000    0.00000       Uiso       1.00
      C181          C  0.4952400  0.4705700  0.3544300    0.00000       Uiso       1.00
       O14          O  0.4486301  0.4905601  0.1944200    0.00000       Uiso       1.00
      C182          C  0.3096100  0.6223000  0.4480200    0.00000       Uiso       1.00
      C183          C  0.2294901  0.8668301  1.2874100    0.00000       Uiso       1.00
      C184          C  0.0233401  0.9748400  0.7643700    0.00000       Uiso       1.00
      C185          C  0.0430500  0.9487501  0.7626000    0.00000       Uiso       1.00
      C186          C  0.0255101  0.9117501  0.6539299    0.00000       Uiso       1.00
      C187          C  0.0447201  0.8878201  0.6444400    0.00000       Uiso       1.00
      C188          C  0.0818400  0.9004900  0.7441000    0.00000       Uiso       1.00
      C189          C  0.0999400  0.9377801  0.8522100    0.00000       Uiso       1.00
      C190          C  0.0807501  0.9618701  0.8601100    0.00000       Uiso       1.00
       N15          N  0.1002500  0.8748000  0.7334700    0.00000       Uiso       1.00
      C191          C  0.1311801  0.8806601  0.8423100    0.00000       Uiso       1.00
      C192          C  0.1496800  0.8538700  0.8281300    0.00000       Uiso       1.00
      C193          C  0.1410701  0.8249500  0.6736000    0.00000       Uiso       1.00
      C194          C  0.1603900  0.8006601  0.6764600    0.00000       Uiso       1.00
       O15          O  0.1140101  0.8214601  0.5202300    0.00000       Uiso       1.00
      C195          C  0.9798601  0.9581601  0.7793000    0.00000       Uiso       1.00
      C196          C  0.7723401  0.6816900  0.2903900    0.00000       Uiso       1.00
      C197          C  0.7047201  0.3820700  0.0856100    0.00000       Uiso       1.00
      C198          C  0.7353801  0.4266800  0.0692700    0.00000       Uiso       1.00
      C199          C  0.7781301  0.4402400  0.0576800    0.00000       Uiso       1.00
      C200          C  0.8075401  0.4824100  0.0483000    0.00000       Uiso       1.00
      C201          C  0.7944800  0.5116000  0.0477800    0.00000       Uiso       1.00
      C202          C  0.7516900  0.4979601  0.0486600    0.00000       Uiso       1.00
      C203          C  0.7223701  0.4559400  0.0594300    0.00000       Uiso       1.00
       N16          N  0.8245500  0.5548601  0.0570900    0.00000       Uiso       1.00
      C204          C  0.8117400  0.5812300  0.0735000    0.00000       Uiso       1.00
      C205          C  0.8382000  0.6256800  0.0963200    0.00000       Uiso       1.00
      C206          C  0.8813500  0.6481900  0.0607200    0.00000       Uiso       1.00
      C207          C  0.9023901  0.6912001  0.0968100    0.00000       Uiso       1.00
       O16          O  0.9019001  0.6275300 -0.0110200    0.00000       Uiso       1.00
      C208          C  0.7192100  0.3540600  0.0874100    0.00000       Uiso       1.00
      C209          C  0.4186300  0.0170300  0.5521700    0.00000       Uiso       1.00
      C210          C  0.3613101  0.7088701  0.4325200    0.00000       Uiso       1.00
      C211          C  0.3890801  0.7542000  0.4241800    0.00000       Uiso       1.00
      C212          C  0.4324101  0.7712301  0.4132300    0.00000       Uiso       1.00
      C213          C  0.4587500  0.8140200  0.3971400    0.00000       Uiso       1.00
      C214          C  0.4420301  0.8402201  0.3866600    0.00000       Uiso       1.00
      C215          C  0.3987401  0.8232901  0.3939200    0.00000       Uiso       1.00
      C216          C  0.3725301  0.7806801  0.4136400    0.00000       Uiso       1.00
       N17          N  0.4693601  0.8840801  0.3833000    0.00000       Uiso       1.00
      C217          C  0.4549901  0.9093901  0.3843100    0.00000       Uiso       1.00
      C218          C  0.4814801  0.9541701  0.4060400    0.00000       Uiso       1.00
      C219          C  0.5249501  0.9751201  0.3826500    0.00000       Uiso       1.00
      C220          C  0.5472000  0.0180500  0.4182400    0.00000       Uiso       1.00
       O17          O  0.5445601  0.9525101  0.3267100    0.00000       Uiso       1.00
      C221          C  0.3782700  0.6829000  0.4305700    0.00000       Uiso       1.00
      C222          C  0.1055500  0.3488900  0.9937600    0.00000       Uiso       1.00
      C223          C  0.0334200  0.0445500  0.7395800    0.00000       Uiso       1.00
      C224          C  0.0625100  0.0896400  0.7145600    0.00000       Uiso       1.00
      C225          C  0.1056500  0.1052400  0.7049800    0.00000       Uiso       1.00
      C226          C  0.1333000  0.1476700  0.6779000    0.00000       Uiso       1.00
      C227          C  0.1183500  0.1752300  0.6558200    0.00000       Uiso       1.00
      C228          C  0.0751900  0.1595800  0.6591200    0.00000       Uiso       1.00
      C229          C  0.0476000  0.1173100  0.6898700    0.00000       Uiso       1.00
       N18          N  0.1471800  0.2190600  0.6562500    0.00000       Uiso       1.00
      C230          C  0.1343000  0.2454700  0.6766400    0.00000       Uiso       1.00
      C231          C  0.1618200  0.2901500  0.7058000    0.00000       Uiso       1.00
      C232          C  0.2045200  0.3116200  0.6581600    0.00000       Uiso       1.00
      C233          C  0.2279800  0.3540300  0.7073300    0.00000       Uiso       1.00
       O18          O  0.2223500  0.2905000  0.5619700    0.00000       Uiso       1.00
      C234          C  0.0492200  0.0176300  0.7474200    0.00000       Uiso       1.00
      C235          C  0.9534702  1.9133402  0.8350700    0.00000       Uiso       1.00
       O19          O  0.9199702  1.8912901  0.7097700    0.00000       Uiso       1.00
      C236          C  0.8948601  1.8552202  0.8193001    0.00000       Uiso       1.00
      C237          C  0.8492001  1.8396001  0.7834100    0.00000       Uiso       1.00
       N19          N  0.8348701  1.8021501  0.6676700    0.00000       Uiso       1.00
      C238          C  0.8665202  1.7902602  0.6396000    0.00000       Uiso       1.00
      C239          C  0.9036501  1.8209101  0.7573701    0.00000       Uiso       1.00
      C240          C  0.8521901  1.7467502  0.7078200    0.00000       Uiso       1.00
       O20          O  0.8139401  1.7243201  0.8081900    0.00000       Uiso       1.00
      C241          C  0.7952401  1.6807600  0.7849700    0.00000       Uiso       1.00
       O21          O  0.8741001  1.7313001  0.6738400    0.00000       Uiso       1.00
      C242          C  0.7975101  1.7836202  0.5743900    0.00000       Uiso       1.00
       O22          O  0.7652401  1.7901602  0.6429000    0.00000       Uiso       1.00
      C243          C  0.7233301  1.7586901  0.5981700    0.00000       Uiso       1.00
      C244          C  0.7140201  1.7161101  0.6716400    0.00000       Uiso       1.00
      C245          C  0.6937202  1.7689402  0.7060300    0.00000       Uiso       1.00
       O23          O  0.7920501  1.7607101  0.4333100    0.00000       Uiso       1.00
      C246          C  0.7149101  1.7569602  0.3761700    0.00000       Uiso       1.00
      C247          C  0.3845800 -0.2490100  1.9952000    0.00000       Uiso       1.00
       O24          O  0.4039600 -0.2219700  1.8381801    0.00000       Uiso       1.00
      C248          C  0.4192200 -0.1840400  1.9332200    0.00000       Uiso       1.00
      C249          C  0.4660200 -0.1593500  1.9243701    0.00000       Uiso       1.00
       N20          N  0.4762700 -0.1169500  1.8873600    0.00000       Uiso       1.00
      C250          C  0.4407100 -0.1157100  1.8040001    0.00000       Uiso       1.00
      C251          C  0.4032100 -0.1584400  1.8364800    0.00000       Uiso       1.00
      C252          C  0.4319200 -0.0832100  1.8849400    0.00000       Uiso       1.00
       O25          O  0.4640700 -0.0458100  1.9586700    0.00000       Uiso       1.00
      C253          C  0.4510900 -0.0168500  2.0061500    0.00000       Uiso       1.00
       O26          O  0.3965700 -0.0888900  1.8713100    0.00000       Uiso       1.00
      C254          C  0.5171100 -0.0867000  1.8651000    0.00000       Uiso       1.00
       O27          O  0.5485000 -0.0955500  1.9178300    0.00000       Uiso       1.00
      C255          C  0.5822400 -0.0840200  1.7784100    0.00000       Uiso       1.00
      C256          C  0.6071300 -0.0373100  1.7423300    0.00000       Uiso       1.00
      C257          C  0.6114800 -0.0970500  1.8642100    0.00000       Uiso       1.00
       O28          O  0.5262700 -0.0524000  1.8024200    0.00000       Uiso       1.00
      C258          C  0.5662900 -0.1066300  1.5819199    0.00000       Uiso       1.00
      C259          C  0.7197701  0.4174500  1.6379800    0.00000       Uiso       1.00
       O29          O  0.7181801  0.4418001  1.4852400    0.00000       Uiso       1.00
      C260          C  0.7339200  0.4808200  1.5728600    0.00000       Uiso       1.00
      C261          C  0.7809300  0.5035801  1.5782701    0.00000       Uiso       1.00
       N21          N  0.7935900  0.5467001  1.5490701    0.00000       Uiso       1.00
      C262          C  0.7599400  0.5521501  1.4729500    0.00000       Uiso       1.00
      C263          C  0.7226501  0.5085201  1.4553200    0.00000       Uiso       1.00
      C264          C  0.7488701  0.5761601  1.6146201    0.00000       Uiso       1.00
       O30          O  0.7386601  0.5625301  1.8130101    0.00000       Uiso       1.00
      C265          C  0.7225201  0.5835500  1.9279100    0.00000       Uiso       1.00
       O31          O  0.7477100  0.6064700  1.5526100    0.00000       Uiso       1.00
      C266          C  0.8334301  0.5779601  1.5833199    0.00000       Uiso       1.00
       O32          O  0.8622101  0.5689000  1.6715200    0.00000       Uiso       1.00
      C267          C  0.8897001  0.5629900  1.5412600    0.00000       Uiso       1.00
      C268          C  0.9217100  0.5601200  1.6672601    0.00000       Uiso       1.00
      C269          C  0.8665801  0.5227700  1.4257500    0.00000       Uiso       1.00
       O33          O  0.8432201  0.6140200  1.5539900    0.00000       Uiso       1.00
      C270          C  0.9127001  0.5991600  1.3974600    0.00000       Uiso       1.00
      C271          C  0.6212501  1.2527901  1.1693400    0.00000       Uiso       1.00
       O34          O  0.6091101  1.2267501  1.0071200    0.00000       Uiso       1.00
      C272          C  0.5927601  1.1880500  1.0963300    0.00000       Uiso       1.00
      C273          C  0.5462201  1.1680201  1.1227400    0.00000       Uiso       1.00
       N22          N  0.5300901  1.1249801  1.0722600    0.00000       Uiso       1.00
      C274          C  0.5601301  1.1192501  0.9543900    0.00000       Uiso       1.00
      C275          C  0.6011401  1.1596301  0.9688200    0.00000       Uiso       1.00
      C276          C  0.5653901  1.0835701  1.0188600    0.00000       Uiso       1.00
       O35          O  0.6033701  1.0915800  1.1002600    0.00000       Uiso       1.00
      C277          C  0.6125901  1.0592201  1.0699900    0.00000       Uiso       1.00
       O36          O  0.5375201  1.0480701  0.9897300    0.00000       Uiso       1.00
      C278          C  0.4883201  1.0974901  1.0857401    0.00000       Uiso       1.00
       O37          O  0.4628801  1.1073101  1.2049800    0.00000       Uiso       1.00
      C279          C  0.4202001  1.0907801  1.1494601    0.00000       Uiso       1.00
      C280          C  0.3959801  1.0435501  1.1428300    0.00000       Uiso       1.00
      C281          C  0.3992501  1.1038301  1.3046200    0.00000       Uiso       1.00
       O38          O  0.4735601  1.0648501  0.9963500    0.00000       Uiso       1.00
      C282          C  0.4174801  1.1083200  0.9495100    0.00000       Uiso       1.00
      C283          C  1.2834102  1.5768101  1.4823999    0.00000       Uiso       1.00
       O39          O  1.2525401  1.5585301  1.3415600    0.00000       Uiso       1.00
      C284          C  1.2228401  1.5224501  1.4362800    0.00000       Uiso       1.00
      C285          C  1.1799301  1.5126202  1.3732799    0.00000       Uiso       1.00
       N23          N  1.1651301  1.4761901  1.2508700    0.00000       Uiso       1.00
      C286          C  1.1888402  1.4552101  1.2742400    0.00000       Uiso       1.00
      C287          C  1.2287902  1.4864101  1.3719701    0.00000       Uiso       1.00
      C288          C  1.1662802  1.4186301  1.4101101    0.00000       Uiso       1.00
       O40          O  1.1317102  1.4137101  1.5206900    0.00000       Uiso       1.00
      C289          C  1.1019801  1.3719101  1.5673701    0.00000       Uiso       1.00
       O41          O  1.1790601  1.3942801  1.4252101    0.00000       Uiso       1.00
      C290          C  1.1282301  1.4588102  1.1537300    0.00000       Uiso       1.00
       O42          O  1.0974801  1.4678301  1.2177600    0.00000       Uiso       1.00
      C291          C  1.0553602  1.4389201  1.1653500    0.00000       Uiso       1.00
      C292          C  1.0425302  1.3944801  1.2247001    0.00000       Uiso       1.00
      C293          C  1.0275401  1.4504300  1.2799900    0.00000       Uiso       1.00
       O43          O  1.1218401  1.4343902  1.0189700    0.00000       Uiso       1.00
      C294          C  1.0488501  1.4412601  0.9437600    0.00000       Uiso       1.00
      C295          C  0.0547400  0.0869000  1.2877101    0.00000       Uiso       1.00
       O44          O  0.0644800  0.1103100  1.1162300    0.00000       Uiso       1.00
      C296          C  0.0839700  0.1500100  1.1938599    0.00000       Uiso       1.00
      C297          C  0.1306100  0.1702000  1.1773800    0.00000       Uiso       1.00
       N24          N  0.1444600  0.2136300  1.1451800    0.00000       Uiso       1.00
      C298          C  0.1102900  0.2202400  1.0916799    0.00000       Uiso       1.00
      C299          C  0.0720500  0.1774500  1.0827100    0.00000       Uiso       1.00
      C300          C  0.1040900  0.2466200  1.2400800    0.00000       Uiso       1.00
       O45          O  0.1344200  0.2885700  1.2504901    0.00000       Uiso       1.00
      C301          C  0.1208800  0.3122500  1.3590701    0.00000       Uiso       1.00
       O46          O  0.0725600  0.2319100  1.3450400    0.00000       Uiso       1.00
      C302          C  0.1858700  0.2423900  1.1315600    0.00000       Uiso       1.00
       O47          O  0.2152200  0.2308000  1.1827301    0.00000       Uiso       1.00
      C303          C  0.2511500  0.2441800  1.0561700    0.00000       Uiso       1.00
      C304          C  0.2771800  0.2912500  1.0385200    0.00000       Uiso       1.00
      C305          C  0.2780900  0.2289800  1.1479801    0.00000       Uiso       1.00
       O48          O  0.1970300  0.2780900  1.0817100    0.00000       Uiso       1.00
      C306          C  0.2386500  0.2251300  0.8501700    0.00000       Uiso       1.00
        H1          H  0.6753101  0.8701600  0.3118800    0.00000       Uiso       1.00
        H2          H  0.7187201  0.9239600  0.2639600    0.00000       Uiso       1.00
        H3          H  0.6765001  0.9147801  0.4445100    0.00000       Uiso       1.00
        H4          H  0.4286900  0.6702400  1.1944799    0.00000       Uiso       1.00
        H5          H  0.5074301  0.7078201  1.2006700    0.00000       Uiso       1.00
        H6          H  0.5130200  0.7774901  0.6616400    0.00000       Uiso       1.00
        H7          H  0.4347101  0.7405201  0.6568100    0.00000       Uiso       1.00
        H8          H  0.5694901  0.8021101  0.6826500    0.00000       Uiso       1.00
        H9          H  0.7098300  0.8327200  1.1396099    0.00000       Uiso       1.00
       H10          H  0.3746600  0.6214901  0.9249700    0.00000       Uiso       1.00
       H11          H  0.3442400  0.1993700 -0.3804400    0.00000       Uiso       1.00
       H12          H  0.3854400  0.2541900 -0.4279700    0.00000       Uiso       1.00
       H13          H  0.3418700  0.2425500 -0.2514700    0.00000       Uiso       1.00
       H14          H  0.0964700 -0.0047900  0.4757900    0.00000       Uiso       1.00
       H15          H  0.1749400  0.0295700  0.4732300    0.00000       Uiso       1.00
       H16          H  0.1826300  0.1173000  0.0133800    0.00000       Uiso       1.00
       H17          H  0.1046300  0.0834600  0.0168600    0.00000       Uiso       1.00
       H18          H  0.2382500  0.1354200  0.0075800    0.00000       Uiso       1.00
       H19          H  0.3799500  0.1611100  0.4361400    0.00000       Uiso       1.00
       H20          H  0.0417600  0.9557701  0.2698600    0.00000       Uiso       1.00
       H21          H  0.0103100  0.5409400  0.0004900    0.00000       Uiso       1.00
       H22          H  0.0494700  0.5971101 -0.0279900    0.00000       Uiso       1.00
       H23          H  0.0022100  0.5807400  0.1298800    0.00000       Uiso       1.00
       H24          H  0.7579001  0.3214600  0.8021100    0.00000       Uiso       1.00
       H25          H  0.8367001  0.3570900  0.7949100    0.00000       Uiso       1.00
       H26          H  0.8417600  0.4455500  0.3465300    0.00000       Uiso       1.00
       H27          H  0.7638900  0.4106000  0.3545400    0.00000       Uiso       1.00
       H28          H  0.8973201  0.4705500  0.3664600    0.00000       Uiso       1.00
       H29          H  0.0359500  0.4931000  0.8123100    0.00000       Uiso       1.00
       H30          H  0.6999100  0.2829100  0.5915300    0.00000       Uiso       1.00
       H31          H  0.1225801  0.7731101  0.4128900    0.00000       Uiso       1.00
       H32          H  0.1228101  0.8096300  0.2228100    0.00000       Uiso       1.00
       H33          H  0.0730901  0.7708401  0.3449000    0.00000       Uiso       1.00
       H34          H  0.3287100  0.7485301  1.1931500    0.00000       Uiso       1.00
       H35          H  0.2915701  0.7894701  1.1931701    0.00000       Uiso       1.00
       H36          H  0.2151800  0.7148800  0.6937900    0.00000       Uiso       1.00
       H37          H  0.2522000  0.6733000  0.6946800    0.00000       Uiso       1.00
       H38          H  0.1961100  0.7539501  0.6901300    0.00000       Uiso       1.00
       H39          H  0.1835500  0.8817201  1.1005100    0.00000       Uiso       1.00
       H40          H  0.7876500  0.1056700 -0.2564900    0.00000       Uiso       1.00
       H41          H  0.7879600  0.1428100 -0.4431000    0.00000       Uiso       1.00
       H42          H  0.7380601  0.1029700 -0.3264600    0.00000       Uiso       1.00
       H43          H  1.0009501  0.0879300  0.4984900    0.00000       Uiso       1.00
       H44          H  0.9633901  0.1285200  0.4993100    0.00000       Uiso       1.00
       H45          H  0.8819400  0.0486500  0.0253200    0.00000       Uiso       1.00
       H46          H  0.9193101  0.0075200  0.0255200    0.00000       Uiso       1.00
       H47          H  0.8612701  0.0863800  0.0235200    0.00000       Uiso       1.00
       H48          H  0.8466601  0.2125600  0.4376000    0.00000       Uiso       1.00
       H49          H  0.4582801  0.4428000  0.0885500    0.00000       Uiso       1.00
       H50          H  0.4584600  0.4791800 -0.1021800    0.00000       Uiso       1.00
       H51          H  0.4086500  0.4398500  0.0171700    0.00000       Uiso       1.00
       H52          H  0.6657801  0.4195000  0.8560700    0.00000       Uiso       1.00
       H53          H  0.6300600  0.4620200  0.8585100    0.00000       Uiso       1.00
       H54          H  0.5482301  0.3847100  0.3792800    0.00000       Uiso       1.00
       H55          H  0.5836700  0.3417800  0.3777700    0.00000       Uiso       1.00
       H56          H  0.5299801  0.4234400  0.3755300    0.00000       Uiso       1.00
       H57          H  0.5180700  0.5527101  0.7725900    0.00000       Uiso       1.00
       H58          H  0.2710500  0.3252900  0.3588400    0.00000       Uiso       1.00
       H59          H  0.2808300  0.2947500  0.5481400    0.00000       Uiso       1.00
       H60          H  0.2802900  0.3427600  0.6227400    0.00000       Uiso       1.00
       H61          H  0.2304900  0.5716400  0.9293300    0.00000       Uiso       1.00
       H62          H  0.1895800  0.4936500  0.8913600    0.00000       Uiso       1.00
       H63          H  0.3055800  0.4894500  0.8765301    0.00000       Uiso       1.00
       H64          H  0.3468201  0.5675901  0.9104400    0.00000       Uiso       1.00
       H65          H  0.2716200  0.4334600  0.8285700    0.00000       Uiso       1.00
       H66          H  0.1091800  0.2924500  0.8378800    0.00000       Uiso       1.00
       H67          H  0.2592101  0.6264001  0.9312800    0.00000       Uiso       1.00
       H68          H  0.9491201  0.6636401 -0.2186900    0.00000       Uiso       1.00
       H69          H  0.9616201  0.6347800 -0.0314300    0.00000       Uiso       1.00
       H70          H  0.9588401  0.6815501  0.0444900    0.00000       Uiso       1.00
       H71          H  0.8980301  0.9068901  0.3063900    0.00000       Uiso       1.00
       H72          H  0.8569301  0.8285401  0.2772400    0.00000       Uiso       1.00
       H73          H  0.9732500  0.8254400  0.2177800    0.00000       Uiso       1.00
       H74          H  1.0143001  0.9034401  0.2456800    0.00000       Uiso       1.00
       H75          H  0.9411001  0.7714001  0.1810800    0.00000       Uiso       1.00
       H76          H  0.7824200  0.6260301  0.1922000    0.00000       Uiso       1.00
       H77          H  0.9275401  0.9627501  0.2694100    0.00000       Uiso       1.00
       H78          H  0.5909701  0.9860601  0.1117900    0.00000       Uiso       1.00
       H79          H  0.6026401  0.9562901  0.2974900    0.00000       Uiso       1.00
       H80          H  0.6032301  1.0048201  0.3730000    0.00000       Uiso       1.00
       H81          H  0.5577100  0.2402400  0.6587900    0.00000       Uiso       1.00
       H82          H  0.5122901  0.1625200  0.6204800    0.00000       Uiso       1.00
       H83          H  0.6229500  0.1525100  0.4816500    0.00000       Uiso       1.00
       H84          H  0.6685700  0.2298300  0.5278500    0.00000       Uiso       1.00
       H85          H  0.5884600  0.0982700  0.4822200    0.00000       Uiso       1.00
       H86          H  0.4261101  0.9578501  0.4784300    0.00000       Uiso       1.00
       H87          H  0.5890101  0.2958400  0.6139600    0.00000       Uiso       1.00
       H88          H  0.3533800  0.1248300  0.5648300    0.00000       Uiso       1.00
       H89          H  0.3081000  0.0727700  0.6249800    0.00000       Uiso       1.00
       H90          H  0.3145000  0.1197000  0.7569401    0.00000       Uiso       1.00
       H91          H  0.5891300  0.3469800 -0.1395900    0.00000       Uiso       1.00
       H92          H  0.5108500  0.3124600 -0.1589500    0.00000       Uiso       1.00
       H93          H  0.4981500  0.2339200  0.3560300    0.00000       Uiso       1.00
       H94          H  0.5756500  0.2679300  0.3754600    0.00000       Uiso       1.00
       H95          H  0.4437100  0.2064100  0.3053600    0.00000       Uiso       1.00
       H96          H  0.3026900  0.1795600 -0.1320300    0.00000       Uiso       1.00
       H97          H  0.6498801  0.3901000  0.0880100    0.00000       Uiso       1.00
       H98          H  0.9913601  0.4858500  1.0158900    0.00000       Uiso       1.00
       H99          H  0.9772900  0.4307300  1.0550801    0.00000       Uiso       1.00
      H100          H  0.9381300  0.4470400  1.1043000    0.00000       Uiso       1.00
      H101          H  0.2466801  0.6618001  0.1693400    0.00000       Uiso       1.00
      H102          H  0.1685801  0.6303301  0.1671800    0.00000       Uiso       1.00
      H103          H  0.1586500  0.5681601  0.7383100    0.00000       Uiso       1.00
      H104          H  0.2365600  0.5990101  0.7396200    0.00000       Uiso       1.00
      H105          H  0.1016500  0.5424700  0.7019200    0.00000       Uiso       1.00
      H106          H  0.9637301  0.5206200  0.2483400    0.00000       Uiso       1.00
      H107          H  0.3043501  0.7127101  0.4326700    0.00000       Uiso       1.00
      H108          H  0.6824101  0.8051901  1.2952400    0.00000       Uiso       1.00
      H109          H  0.6422200  0.7496400  1.3334000    0.00000       Uiso       1.00
      H110          H  0.6369300  0.7911601  1.4626700    0.00000       Uiso       1.00
      H111          H  0.9189201  1.0008701  0.4946000    0.00000       Uiso       1.00
      H112          H  0.8407601  0.9685901  0.4860000    0.00000       Uiso       1.00
      H113          H  0.8295601  0.9037801  1.0504600    0.00000       Uiso       1.00
      H114          H  0.9074401  0.9356800  1.0587300    0.00000       Uiso       1.00
      H115          H  0.7744001  0.8774701  1.0099599    0.00000       Uiso       1.00
      H116          H  0.6348200  0.8488201  0.5534100    0.00000       Uiso       1.00
      H117          H  0.9772301  0.0498600  0.7352100    0.00000       Uiso       1.00
      H118          H  0.9124200  0.2318600  0.5547300    0.00000       Uiso       1.00
      H119          H  0.9122701  0.1957200  0.7467900    0.00000       Uiso       1.00
      H120          H  0.8627501  0.1933300  0.6781200    0.00000       Uiso       1.00
      H121          H  0.6704900  0.2455100 -0.1452000    0.00000       Uiso       1.00
      H122          H  0.7032201  0.2002600 -0.1608900    0.00000       Uiso       1.00
      H123          H  0.7877600  0.2730400  0.3203000    0.00000       Uiso       1.00
      H124          H  0.7553501  0.3188000  0.3341800    0.00000       Uiso       1.00
      H125          H  0.8059601  0.2357900  0.3042700    0.00000       Uiso       1.00
      H126          H  0.8189600  0.1095700 -0.1151500    0.00000       Uiso       1.00
      H127          H  0.5826201  0.5708101  0.8946600    0.00000       Uiso       1.00
      H128          H  0.5826200  0.5354100  1.0904300    0.00000       Uiso       1.00
      H129          H  0.5331001  0.5329800  1.0215900    0.00000       Uiso       1.00
      H130          H  0.3279200  0.5676600  0.2297500    0.00000       Uiso       1.00
      H131          H  0.3643600  0.5258901  0.2134100    0.00000       Uiso       1.00
      H132          H  0.4607001  0.6150901  0.6130200    0.00000       Uiso       1.00
      H133          H  0.4246900  0.6574900  0.6262301    0.00000       Uiso       1.00
      H134          H  0.4780601  0.5768901  0.6226800    0.00000       Uiso       1.00
      H135          H  0.4889401  0.4466700  0.2332100    0.00000       Uiso       1.00
      H136          H  0.2477901  0.8995501  1.2222600    0.00000       Uiso       1.00
      H137          H  0.2476501  0.8634501  1.4145300    0.00000       Uiso       1.00
      H138          H  0.1981501  0.8611301  1.3462399    0.00000       Uiso       1.00
      H139          H -0.0048600  0.9008800  0.5718600    0.00000       Uiso       1.00
      H140          H  0.0301100  0.8577801  0.5550400    0.00000       Uiso       1.00
      H141          H  0.1303301  0.9484001  0.9336400    0.00000       Uiso       1.00
      H142          H  0.0958601  0.9923201  0.9462700    0.00000       Uiso       1.00
      H143          H  0.1449300  0.9073001  0.9535700    0.00000       Uiso       1.00
      H144          H  0.1540100  0.7771100  0.5533400    0.00000       Uiso       1.00
      H145          H  0.7647501  0.6490700  0.3359000    0.00000       Uiso       1.00
      H146          H  0.7571501  0.6803000  0.1419400    0.00000       Uiso       1.00
      H147          H  0.7600201  0.6948901  0.4091300    0.00000       Uiso       1.00
      H148          H  0.7891101  0.4165700  0.0558800    0.00000       Uiso       1.00
      H149          H  0.8420501  0.4928600  0.0411000    0.00000       Uiso       1.00
      H150          H  0.7406601  0.5215300  0.0404500    0.00000       Uiso       1.00
      H151          H  0.6878000  0.4453000  0.0602500    0.00000       Uiso       1.00
      H152          H  0.7770501  0.5700201  0.0705700    0.00000       Uiso       1.00
      H153          H  0.9374000  0.7104700  0.0707500    0.00000       Uiso       1.00
      H154          H  0.7540201  0.3659000  0.0781700    0.00000       Uiso       1.00
      H155          H  0.4086300 -0.0163500  0.5957100    0.00000       Uiso       1.00
      H156          H  0.4053600  0.0173700  0.4004600    0.00000       Uiso       1.00
      H157          H  0.4065300  0.0309500  0.6682800    0.00000       Uiso       1.00
      H158          H  0.4462701  0.7499501  0.4174900    0.00000       Uiso       1.00
      H159          H  0.4938601  0.8275301  0.3925800    0.00000       Uiso       1.00
      H160          H  0.3849401  0.8445700  0.3835900    0.00000       Uiso       1.00
      H161          H  0.3374501  0.7672701  0.4212600    0.00000       Uiso       1.00
      H162          H  0.4202401  0.8968901  0.3677500    0.00000       Uiso       1.00
      H163          H  0.5825500  0.0358200  0.4047200    0.00000       Uiso       1.00
      H164          H  0.4134201  0.6967900  0.4245300    0.00000       Uiso       1.00
      H165          H  0.0980100  0.3164900  1.0430400    0.00000       Uiso       1.00
      H166          H  0.0872100  0.3464200  0.8545901    0.00000       Uiso       1.00
      H167          H  0.0967500  0.3641000  1.1181400    0.00000       Uiso       1.00
      H168          H  0.1184300  0.0831600  0.7193900    0.00000       Uiso       1.00
      H169          H  0.1682100  0.1599200  0.6737400    0.00000       Uiso       1.00
      H170          H  0.0624500  0.1815100  0.6365400    0.00000       Uiso       1.00
      H171          H  0.0127400  0.1053100  0.6948701    0.00000       Uiso       1.00
      H172          H  0.0996400  0.2343400  0.6723900    0.00000       Uiso       1.00
      H173          H  0.2626200  0.3723200  0.6699700    0.00000       Uiso       1.00
      H174          H  0.0842300  0.0305200  0.7399300    0.00000       Uiso       1.00
      H175          H  0.9736301  1.8982002  0.8324300    0.00000       Uiso       1.00
      H176          H  0.9415902  1.9120603  0.9937700    0.00000       Uiso       1.00
      H177          H  0.9015101  1.8619101  0.9846600    0.00000       Uiso       1.00
      H178          H  0.8453702  1.8636802  0.6956900    0.00000       Uiso       1.00
      H179          H  0.8319501  1.8329802  0.9324500    0.00000       Uiso       1.00
      H180          H  0.8755801  1.7932901  0.4750400    0.00000       Uiso       1.00
      H181          H  0.9071801  1.8050702  0.8949700    0.00000       Uiso       1.00
      H182          H  0.9332802  1.8347402  0.6625600    0.00000       Uiso       1.00
      H183          H  0.8127701  1.6688200  0.8765400    0.00000       Uiso       1.00
      H184          H  0.7963901  1.6732302  0.6211100    0.00000       Uiso       1.00
      H185          H  0.7615101  1.6651402  0.8385500    0.00000       Uiso       1.00
      H186          H  0.7375701  1.7200301  0.7891600    0.00000       Uiso       1.00
      H187          H  0.7161402  1.6975201  0.5412200    0.00000       Uiso       1.00
      H188          H  0.6813802  1.6988902  0.7395400    0.00000       Uiso       1.00
      H189          H  0.6714501  1.7414300  0.8033500    0.00000       Uiso       1.00
      H190          H  0.6752801  1.7757201  0.5926700    0.00000       Uiso       1.00
      H191          H  0.7120801  1.7974201  0.8035100    0.00000       Uiso       1.00
      H192          H  0.7232901  1.7345201  0.3012700    0.00000       Uiso       1.00
      H193          H  0.7345401  1.7892702  0.3081700    0.00000       Uiso       1.00
      H194          H  0.6805902  1.7458001  0.3527300    0.00000       Uiso       1.00
      H195          H  0.3624900 -0.2403700  2.0726399    0.00000       Uiso       1.00
      H196          H  0.4088700 -0.2459400  2.1064501    0.00000       Uiso       1.00
      H197          H  0.4085700 -0.1897500  2.0958600    0.00000       Uiso       1.00
      H198          H  0.4781900 -0.1708700  1.7971400    0.00000       Uiso       1.00
      H199          H  0.4789900 -0.1625100  2.0721400    0.00000       Uiso       1.00
      H200          H  0.4462400 -0.1103900  1.6365300    0.00000       Uiso       1.00
      H201          H  0.3797000 -0.1563100  1.9392500    0.00000       Uiso       1.00
      H202          H  0.3880800 -0.1732400  1.6891400    0.00000       Uiso       1.00
      H203          H  0.4269500 -0.0298500  2.1318800    0.00000       Uiso       1.00
      H204          H  0.4368700 -0.0110100  1.8692200    0.00000       Uiso       1.00
      H205          H  0.4790000  0.0136000  2.0555501    0.00000       Uiso       1.00
      H206          H  0.6097100 -0.0307400  1.5754000    0.00000       Uiso       1.00
      H207          H  0.6395600 -0.0243400  1.8061500    0.00000       Uiso       1.00
      H208          H  0.5907800 -0.0218700  1.8184199    0.00000       Uiso       1.00
      H209          H  0.6343900 -0.0948400  1.7436301    0.00000       Uiso       1.00
      H210          H  0.5928300 -0.1304500  1.9207500    0.00000       Uiso       1.00
      H211          H  0.6292500 -0.0756800  1.9928501    0.00000       Uiso       1.00
      H212          H  0.5740700 -0.1325900  1.5694500    0.00000       Uiso       1.00
      H213          H  0.5816700 -0.0837900  1.4531299    0.00000       Uiso       1.00
      H214          H  0.5311700 -0.1204600  1.5759300    0.00000       Uiso       1.00
      H215          H  0.7100400  0.4261800  1.7836699    0.00000       Uiso       1.00
      H216          H  0.7529401  0.4237100  1.6523199    0.00000       Uiso       1.00
      H217          H  0.7210000  0.4769301  1.7312000    0.00000       Uiso       1.00
      H218          H  0.7937600  0.4923601  1.4526501    0.00000       Uiso       1.00
      H219          H  0.7913401  0.4980500  1.7285401    0.00000       Uiso       1.00
      H220          H  0.7688301  0.5681100  1.3209599    0.00000       Uiso       1.00
      H221          H  0.6938000  0.5073500  1.5230701    0.00000       Uiso       1.00
      H222          H  0.7168301  0.4978400  1.2937001    0.00000       Uiso       1.00
      H223          H  0.7009900  0.5618900  2.0498400    0.00000       Uiso       1.00
      H224          H  0.7043900  0.5933501  1.8274601    0.00000       Uiso       1.00
      H225          H  0.7492300  0.6122701  1.9986300    0.00000       Uiso       1.00
      H226          H  0.9525301  0.5741600  1.5818800    0.00000       Uiso       1.00
      H227          H  0.9105801  0.5261301  1.7028301    0.00000       Uiso       1.00
      H228          H  0.9261001  0.5779101  1.8118800    0.00000       Uiso       1.00
      H229          H  0.8771801  0.5003000  1.4758700    0.00000       Uiso       1.00
      H230          H  0.8734201  0.5295000  1.2597301    0.00000       Uiso       1.00
      H231          H  0.8317701  0.5082901  1.4548200    0.00000       Uiso       1.00
      H232          H  0.8925801  0.5942901  1.2620701    0.00000       Uiso       1.00
      H233          H  0.9430301  0.6010400  1.3475800    0.00000       Uiso       1.00
      H234          H  0.9197601  0.6293001  1.4747400    0.00000       Uiso       1.00
      H235          H  0.6378901  1.2427301  1.2780900    0.00000       Uiso       1.00
      H236          H  0.5926701  1.2504301  1.2467901    0.00000       Uiso       1.00
      H237          H  0.6075701  1.1915801  1.2480900    0.00000       Uiso       1.00
      H238          H  0.5335501  1.1828901  1.0172000    0.00000       Uiso       1.00
      H239          H  0.5385201  1.1717201  1.2837200    0.00000       Uiso       1.00
      H240          H  0.5500101  1.1143601  0.7923101    0.00000       Uiso       1.00
      H241          H  0.6252701  1.1538101  1.0421300    0.00000       Uiso       1.00
      H242          H  0.6127801  1.1743401  0.8155200    0.00000       Uiso       1.00
      H243          H  0.6033001  1.0463401  0.9130900    0.00000       Uiso       1.00
      H244          H  0.5945401  1.0333500  1.1834900    0.00000       Uiso       1.00
      H245          H  0.6473201  1.0719801  1.0890800    0.00000       Uiso       1.00
      H246          H  0.4135101  1.0307101  1.2278401    0.00000       Uiso       1.00
      H247          H  0.3922801  1.0328602  0.9813100    0.00000       Uiso       1.00
      H248          H  0.3640001  1.0316601  1.2143600    0.00000       Uiso       1.00
      H249          H  0.3799901  1.0767201  1.4103401    0.00000       Uiso       1.00
      H250          H  0.3781001  1.1134100  1.2281500    0.00000       Uiso       1.00
      H251          H  0.4238401  1.1312201  1.3924900    0.00000       Uiso       1.00
      H252          H  0.4280001  1.0944101  0.8259700    0.00000       Uiso       1.00
      H253          H  0.4384001  1.1435401  0.9495100    0.00000       Uiso       1.00
      H254          H  0.3840001  1.1001500  0.9230500    0.00000       Uiso       1.00
      H255          H  1.3038601  1.5620201  1.4748801    0.00000       Uiso       1.00
      H256          H  1.2686301  1.5715001  1.6372700    0.00000       Uiso       1.00
      H257          H  1.2258002  1.5264101  1.6047901    0.00000       Uiso       1.00
      H258          H  1.1819202  1.5395201  1.2830100    0.00000       Uiso       1.00
      H259          H  1.1593702  1.5064901  1.5110400    0.00000       Uiso       1.00
      H260          H  1.1953801  1.4453201  1.1235300    0.00000       Uiso       1.00
      H261          H  1.2347101  1.4718001  1.5076400    0.00000       Uiso       1.00
      H262          H  1.2561501  1.4981802  1.2628701    0.00000       Uiso       1.00
      H263          H  1.1183701  1.3556300  1.6315000    0.00000       Uiso       1.00
      H264          H  1.0849401  1.3552601  1.4264500    0.00000       Uiso       1.00
      H265          H  1.0787001  1.3712201  1.6817200    0.00000       Uiso       1.00
      H266          H  1.0659001  1.3948601  1.3342400    0.00000       Uiso       1.00
      H267          H  1.0417202  1.3762600  1.0863800    0.00000       Uiso       1.00
      H268          H  1.0103701  1.3791001  1.2978899    0.00000       Uiso       1.00
      H269          H  1.0055802  1.4233801  1.3804899    0.00000       Uiso       1.00
      H270          H  1.0086601  1.4576701  1.1713500    0.00000       Uiso       1.00
      H271          H  1.0473001  1.4789602  1.3749501    0.00000       Uiso       1.00
      H272          H  1.0583501  1.4206201  0.8591400    0.00000       Uiso       1.00
      H273          H  1.0686401  1.4747502  0.8899300    0.00000       Uiso       1.00
      H274          H  1.0146801  1.4301600  0.9159900    0.00000       Uiso       1.00
      H275          H  0.0367200  0.0964600  1.3930100    0.00000       Uiso       1.00
      H276          H  0.0845600  0.0929900  1.3631401    0.00000       Uiso       1.00
      H277          H  0.0746000  0.1484800  1.3573400    0.00000       Uiso       1.00
      H278          H  0.1397500  0.1570900  1.0449101    0.00000       Uiso       1.00
      H279          H  0.1432300  0.1647500  1.3211100    0.00000       Uiso       1.00
      H280          H  0.1167600  0.2355800  0.9384900    0.00000       Uiso       1.00
      H281          H  0.0445900  0.1775000  1.1599700    0.00000       Uiso       1.00
      H282          H  0.0638600  0.1659600  0.9230800    0.00000       Uiso       1.00
      H283          H  0.0995100  0.2926600  1.4865100    0.00000       Uiso       1.00
      H284          H  0.1032700  0.3222800  1.2563601    0.00000       Uiso       1.00
      H285          H  0.1489200  0.3409400  1.4220700    0.00000       Uiso       1.00
      H286          H  0.2821000  0.3006200  0.8745100    0.00000       Uiso       1.00
      H287          H  0.3085700  0.3024300  1.1109700    0.00000       Uiso       1.00
      H288          H  0.2603600  0.3059800  1.1168400    0.00000       Uiso       1.00
      H289          H  0.3009000  0.2296200  1.0309200    0.00000       Uiso       1.00
      H290          H  0.2576500  0.1958200  1.2050101    0.00000       Uiso       1.00
      H291          H  0.2960400  0.2500200  1.2772399    0.00000       Uiso       1.00
      H292          H  0.2479100  0.2003600  0.8300700    0.00000       Uiso       1.00
      H293          H  0.2550800  0.2503900  0.7321000    0.00000       Uiso       1.00
      H294          H  0.2035800  0.2103600  0.8339100    0.00000       Uiso       1.00
