data_DNiPc-ANDI-COF
_audit_creation_date              0000-00-00
_audit_creation_method            'LanYouShi'
_symmetry_space_group_name_H-M    'P1'
_cell_length_a                    35.9164009
_cell_length_b                    35.8973007
_cell_length_c                    3.5999999
_cell_angle_alpha                 90.0000000
_cell_angle_beta                  90.0000000
_cell_angle_gamma                 90.3219986
loop_
_atom_site_label
_atom_site_type_symbol
_atom_site_fract_x
_atom_site_fract_y
_atom_site_fract_z
_atom_site_U_iso_or_equiv
_atom_site_adp_type
_atom_site_occupancy
        C1          C  0.4819773  0.6819817  1.3888890    0.00000       Uiso       1.00
        C2          C  0.5410745  0.6497345  1.3888890    0.00000       Uiso       1.00
        C3          C  0.5205097  0.6168408  1.3888890    0.00000       Uiso       1.00
        C4          C  0.5332918  0.5789883  1.3888890    0.00000       Uiso       1.00
        O1          O  0.5317874  0.7163307  1.3888890    0.00000       Uiso       1.00
        H1          H  0.5706168  0.6499357  1.3888890    0.00000       Uiso       1.00
        C5          C  0.3176078  0.4813176  1.3888890    0.00000       Uiso       1.00
        C6          C  0.3505317  0.5405164  1.3888890    0.00000       Uiso       1.00
        C7          C  0.3832082  0.5199860  1.3888890    0.00000       Uiso       1.00
        C8          C  0.4215310  0.5330150  1.3888890    0.00000       Uiso       1.00
        O2          O  0.2838925  0.5312121  1.3888890    0.00000       Uiso       1.00
        H2          H  0.3506078  0.5700457  1.3888890    0.00000       Uiso       1.00
        N1          N  0.5674403  0.5694035  1.3888890    0.00000       Uiso       1.00
        C9          C  0.5180244  0.3180124  1.3888890    0.00000       Uiso       1.00
       C10          C  0.4589272  0.3502596  1.3888890    0.00000       Uiso       1.00
       C11          C  0.4794921  0.3831532  1.3888890    0.00000       Uiso       1.00
       C12          C  0.4667102  0.4210337  1.3888890    0.00000       Uiso       1.00
        O3          O  0.4682143  0.2836634  1.3888890    0.00000       Uiso       1.00
        H3          H  0.4293849  0.3500584  1.3888890    0.00000       Uiso       1.00
       C13          C  0.6823939  0.5186764  1.3888890    0.00000       Uiso       1.00
       C14          C  0.6494701  0.4594777  1.3888890    0.00000       Uiso       1.00
       C15          C  0.6167937  0.4800360  1.3888890    0.00000       Uiso       1.00
       C16          C  0.5784708  0.4669791  1.3888890    0.00000       Uiso       1.00
        O4          O  0.7161095  0.4688099  1.3888890    0.00000       Uiso       1.00
        H4          H  0.6493940  0.4299484  1.3888890    0.00000       Uiso       1.00
        N2          N  0.4325615  0.4305905  1.3888890    0.00000       Uiso       1.00
       C17          C  0.5203466  0.6823074  1.3888890    0.00000       Uiso       1.00
       C18          C  0.4614123  0.6490602  1.3888890    0.00000       Uiso       1.00
       C19          C  0.4821682  0.6165152  1.3888890    0.00000       Uiso       1.00
       C20          C  0.4696120  0.5784265  1.3888890    0.00000       Uiso       1.00
        O5          O  0.4703352  0.7157930  1.3888890    0.00000       Uiso       1.00
        H5          H  0.4318694  0.6487755  1.3888890    0.00000       Uiso       1.00
       C21          C  0.6822530  0.4802605  1.3888890    0.00000       Uiso       1.00
       C22          C  0.6497460  0.5393183  1.3888890    0.00000       Uiso       1.00
       C23          C  0.6169358  0.5186191  1.3888890    0.00000       Uiso       1.00
       C24          C  0.5787185  0.5314978  1.3888890    0.00000       Uiso       1.00
        O6          O  0.7163351  0.5302921  1.3888890    0.00000       Uiso       1.00
        H6          H  0.6498500  0.5688475  1.3888890    0.00000       Uiso       1.00
        N3          N  0.4318036  0.5672073  1.3888890    0.00000       Uiso       1.00
       C25          C  0.4796551  0.3176866  1.3888890    0.00000       Uiso       1.00
       C26          C  0.5385895  0.3509339  1.3888890    0.00000       Uiso       1.00
       C27          C  0.5178335  0.3834790  1.3888890    0.00000       Uiso       1.00
       C28          C  0.5303898  0.4215676  1.3888890    0.00000       Uiso       1.00
        O7          O  0.5296666  0.2842011  1.3888890    0.00000       Uiso       1.00
        H7          H  0.5681324  0.3512187  1.3888890    0.00000       Uiso       1.00
       C29          C  0.3177488  0.5197336  1.3888890    0.00000       Uiso       1.00
       C30          C  0.3502558  0.4606759  1.3888890    0.00000       Uiso       1.00
       C31          C  0.3830659  0.4813750  1.3888890    0.00000       Uiso       1.00
       C32          C  0.4212832  0.4684963  1.3888890    0.00000       Uiso       1.00
        O8          O  0.2836669  0.4697299  1.3888890    0.00000       Uiso       1.00
        H8          H  0.3501240  0.4311466  1.3888890    0.00000       Uiso       1.00
        N4          N  0.5681982  0.4327867  1.3888890    0.00000       Uiso       1.00
        B1          B  0.5009812  0.7375265  1.3888890    0.00000       Uiso       1.00
        N5          N  0.5015565  0.5529664  1.3888890    0.00000       Uiso       1.00
        B2          B  0.4990206  0.2624676  1.3888890    0.00000       Uiso       1.00
        N6          N  0.4984453  0.4470277  1.3888890    0.00000       Uiso       1.00
        B3          B  0.2623405  0.5004094  1.3888890    0.00000       Uiso       1.00
        N7          N  0.4443775  0.5008007  1.3888890    0.00000       Uiso       1.00
        B4          B  0.7376612  0.4995847  1.3888890    0.00000       Uiso       1.00
        N8          N  0.5556245  0.4992213  1.3888890    0.00000       Uiso       1.00
       C33          C  0.0197603  0.5000281  1.3888890    0.00000       Uiso       1.00
       C34          C  0.0200295  0.5665642  1.3888890    0.00000       Uiso       1.00
       C35          C  0.0194910  0.4334920  1.3888890    0.00000       Uiso       1.00
       C36          C  0.0395962  0.5333247  1.3888890    0.00000       Uiso       1.00
       C37          C  0.0788477  0.5333863  1.3888890    0.00000       Uiso       1.00
       C38          C  0.0393270  0.4667935  1.3888890    0.00000       Uiso       1.00
       C39          C  0.0785784  0.4668552  1.3888890    0.00000       Uiso       1.00
       C40          C  0.1400425  0.5002172  1.3888890    0.00000       Uiso       1.00
       C41          C  0.1612233  0.5335159  1.3888890    0.00000       Uiso       1.00
       C42          C  0.2002640  0.5335773  1.3888890    0.00000       Uiso       1.00
       C43          C  0.1609540  0.4669847  1.3888890    0.00000       Uiso       1.00
       C44          C  0.1999948  0.4670461  1.3888890    0.00000       Uiso       1.00
       C45          C  0.2203346  0.5003434  1.3888890    0.00000       Uiso       1.00
        O9          O  0.0955121  0.5640821  1.3888890    0.00000       Uiso       1.00
       O10          O  0.0949946  0.4362114  1.3888890    0.00000       Uiso       1.00
        N9          N  0.0986867  0.5001522  1.3888890    0.00000       Uiso       1.00
       H11          H  0.0352681  0.5928124  1.3888890    0.00000       Uiso       1.00
       H12          H  0.1472794  0.5603130  1.3888890    0.00000       Uiso       1.00
       H13          H  0.2155026  0.5598254  1.3888890    0.00000       Uiso       1.00
       H14          H  0.0345174  0.4072914  1.3888890    0.00000       Uiso       1.00
       H15          H  0.1467931  0.4401433  1.3888890    0.00000       Uiso       1.00
       H16          H  0.2150211  0.4408455  1.3888890    0.00000       Uiso       1.00
       C46          C  0.9802415  0.4999660  1.3888890    0.00000       Uiso       1.00
       C47          C  0.9799722  0.4334299  1.3888890    0.00000       Uiso       1.00
       C48          C  0.9805107  0.5665021  1.3888890    0.00000       Uiso       1.00
       C49          C  0.9604056  0.4666694  1.3888890    0.00000       Uiso       1.00
       C50          C  0.9211541  0.4666077  1.3888890    0.00000       Uiso       1.00
       C51          C  0.9606748  0.5332006  1.3888890    0.00000       Uiso       1.00
       C52          C  0.9214234  0.5331389  1.3888890    0.00000       Uiso       1.00
       C53          C  0.8599593  0.4997769  1.3888890    0.00000       Uiso       1.00
       C54          C  0.8387785  0.4664782  1.3888890    0.00000       Uiso       1.00
       C55          C  0.7997378  0.4664169  1.3888890    0.00000       Uiso       1.00
       C56          C  0.8390477  0.5330094  1.3888890    0.00000       Uiso       1.00
       C57          C  0.8000070  0.5329480  1.3888890    0.00000       Uiso       1.00
       C58          C  0.7796671  0.4996507  1.3888890    0.00000       Uiso       1.00
       O11          O  0.9044896  0.4359119  1.3888890    0.00000       Uiso       1.00
       O12          O  0.9050071  0.5637827  1.3888890    0.00000       Uiso       1.00
       N10          N  0.9013151  0.4998419  1.3888890    0.00000       Uiso       1.00
       H17          H  0.9647337  0.4071817  1.3888890    0.00000       Uiso       1.00
       H18          H  0.8527223  0.4396811  1.3888890    0.00000       Uiso       1.00
       H19          H  0.7844991  0.4401687  1.3888890    0.00000       Uiso       1.00
       H20          H  0.9654844  0.5927027  1.3888890    0.00000       Uiso       1.00
       H21          H  0.8532086  0.5598508  1.3888890    0.00000       Uiso       1.00
       H22          H  0.7849806  0.5591486  1.3888890    0.00000       Uiso       1.00
       C59          C  0.4999267  0.0197669  1.3888890    0.00000       Uiso       1.00
       C60          C  0.4334264  0.0191444  1.3888890    0.00000       Uiso       1.00
       C61          C  0.5664271  0.0203893  1.3888890    0.00000       Uiso       1.00
       C62          C  0.4666055  0.0391667  1.3888890    0.00000       Uiso       1.00
       C63          C  0.4664588  0.0784377  1.3888890    0.00000       Uiso       1.00
       C64          C  0.5331009  0.0397891  1.3888890    0.00000       Uiso       1.00
       C65          C  0.5329542  0.0790601  1.3888890    0.00000       Uiso       1.00
       C66          C  0.4994774  0.1401088  1.3888890    0.00000       Uiso       1.00
       C67          C  0.4661511  0.1608542  1.3888890    0.00000       Uiso       1.00
       C68          C  0.4660053  0.1999143  1.3888890    0.00000       Uiso       1.00
       C69          C  0.5326465  0.1614766  1.3888890    0.00000       Uiso       1.00
       C70          C  0.5325007  0.2005367  1.3888890    0.00000       Uiso       1.00
       C71          C  0.4991775  0.2204408  1.3888890    0.00000       Uiso       1.00
       O13          O  0.4357437  0.0946993  1.3888890    0.00000       Uiso       1.00
       O14          O  0.5635458  0.0958956  1.3888890    0.00000       Uiso       1.00
       N11          N  0.4996319  0.0987325  1.3888890    0.00000       Uiso       1.00
       H23          H  0.4071596  0.0340391  1.3888890    0.00000       Uiso       1.00
       H24          H  0.4393988  0.1465440  1.3888890    0.00000       Uiso       1.00
       H25          H  0.4397385  0.2148090  1.3888890    0.00000       Uiso       1.00
       H26          H  0.5925809  0.0357746  1.3888890    0.00000       Uiso       1.00
       H27          H  0.5595039  0.1476682  1.3888890    0.00000       Uiso       1.00
       H28          H  0.5586544  0.2159221  1.3888890    0.00000       Uiso       1.00
       C72          C  0.5000750  0.9802272  1.3888890    0.00000       Uiso       1.00
       C73          C  0.5665754  0.9808497  1.3888890    0.00000       Uiso       1.00
       C74          C  0.4335747  0.9796048  1.3888890    0.00000       Uiso       1.00
       C75          C  0.5333964  0.9608274  1.3888890    0.00000       Uiso       1.00
       C76          C  0.5335429  0.9215564  1.3888890    0.00000       Uiso       1.00
       C77          C  0.4669009  0.9602050  1.3888890    0.00000       Uiso       1.00
       C78          C  0.4670476  0.9209340  1.3888890    0.00000       Uiso       1.00
       C79          C  0.5005243  0.8598853  1.3888890    0.00000       Uiso       1.00
       C80          C  0.5338506  0.8391399  1.3888890    0.00000       Uiso       1.00
       C81          C  0.5339965  0.8000797  1.3888890    0.00000       Uiso       1.00
       C82          C  0.4673553  0.8385175  1.3888890    0.00000       Uiso       1.00
       C83          C  0.4675010  0.7994574  1.3888890    0.00000       Uiso       1.00
       C84          C  0.5008243  0.7795532  1.3888890    0.00000       Uiso       1.00
       O15          O  0.5642580  0.9052948  1.3888890    0.00000       Uiso       1.00
       O16          O  0.4364560  0.9040986  1.3888890    0.00000       Uiso       1.00
       N12          N  0.5003698  0.9012616  1.3888890    0.00000       Uiso       1.00
       H29          H  0.5928422  0.9659550  1.3888890    0.00000       Uiso       1.00
       H30          H  0.5606030  0.8534501  1.3888890    0.00000       Uiso       1.00
       H31          H  0.5602633  0.7851851  1.3888890    0.00000       Uiso       1.00
       H32          H  0.4074209  0.9642195  1.3888890    0.00000       Uiso       1.00
       H33          H  0.4404979  0.8523260  1.3888890    0.00000       Uiso       1.00
       H34          H  0.4413473  0.7840720  1.3888890    0.00000       Uiso       1.00
        Ni         Ni  0.5000000  0.5000000  0.3900000    0.00000       Uiso       1.00
