data_DNiPc-APDI-COF
_audit_creation_date              0000-00-00
_audit_creation_method            'LanYouShi'
_symmetry_space_group_name_H-M    'P1'
_cell_length_a                    40.6129990
_cell_length_b                    40.6129990
_cell_length_c                    3.5218000
_cell_angle_alpha                 90.0000000
_cell_angle_beta                  90.0000000
_cell_angle_gamma                 90.0000000
loop_
_atom_site_label
_atom_site_type_symbol
_atom_site_fract_x
_atom_site_fract_y
_atom_site_fract_z
_atom_site_U_iso_or_equiv
_atom_site_adp_type
_atom_site_occupancy
        C1          C  0.4827050  0.6608712  0.5000020    0.00000       Uiso       1.00
        C2          C  0.5354003  0.6313791  0.5000020    0.00000       Uiso       1.00
        C3          C  0.5172083  0.6017646  0.5000020    0.00000       Uiso       1.00
        C4          C  0.5271220  0.5689684  0.5000020    0.00000       Uiso       1.00
        C1          C  0.5172954  0.3391291  0.5000020    0.00000       Uiso       1.00
        C2          C  0.4646001  0.3686213  0.5000020    0.00000       Uiso       1.00
        C3          C  0.4827920  0.3982358  0.5000020    0.00000       Uiso       1.00
        C4          C  0.4728783  0.4310320  0.5000020    0.00000       Uiso       1.00
        C1          C  0.3391291  0.4827050  0.5000020    0.00000       Uiso       1.00
        C2          C  0.3686213  0.5354003  0.5000020    0.00000       Uiso       1.00
        C3          C  0.3982358  0.5172083  0.5000020    0.00000       Uiso       1.00
        C4          C  0.4310320  0.5271220  0.5000020    0.00000       Uiso       1.00
        C1          C  0.6608712  0.5172954  0.5000020    0.00000       Uiso       1.00
        C2          C  0.6313791  0.4646001  0.5000020    0.00000       Uiso       1.00
        C3          C  0.6017646  0.4827920  0.5000020    0.00000       Uiso       1.00
        C4          C  0.5689684  0.4728783  0.5000020    0.00000       Uiso       1.00
        C1          C  0.5172954  0.6608712  0.5000020    0.00000       Uiso       1.00
        C2          C  0.4646001  0.6313791  0.5000020    0.00000       Uiso       1.00
        C3          C  0.4827920  0.6017646  0.5000020    0.00000       Uiso       1.00
        C4          C  0.4728783  0.5689684  0.5000020    0.00000       Uiso       1.00
        C1          C  0.4827050  0.3391291  0.5000020    0.00000       Uiso       1.00
        C2          C  0.5354003  0.3686213  0.5000020    0.00000       Uiso       1.00
        C3          C  0.5172083  0.3982358  0.5000020    0.00000       Uiso       1.00
        C4          C  0.5271220  0.4310320  0.5000020    0.00000       Uiso       1.00
        C1          C  0.6608712  0.4827050  0.5000020    0.00000       Uiso       1.00
        C2          C  0.6313791  0.5354003  0.5000020    0.00000       Uiso       1.00
        C3          C  0.6017646  0.5172083  0.5000020    0.00000       Uiso       1.00
        C4          C  0.5689684  0.5271220  0.5000020    0.00000       Uiso       1.00
        C1          C  0.3391291  0.5172954  0.5000020    0.00000       Uiso       1.00
        C2          C  0.3686213  0.4646001  0.5000020    0.00000       Uiso       1.00
        C3          C  0.3982358  0.4827920  0.5000020    0.00000       Uiso       1.00
        C4          C  0.4310320  0.4728783  0.5000020    0.00000       Uiso       1.00
        O1          O  0.5291054  0.6918519  0.5000020    0.00000       Uiso       1.00
        O1          O  0.4708950  0.3081485  0.5000020    0.00000       Uiso       1.00
        O1          O  0.3081485  0.5291054  0.5000020    0.00000       Uiso       1.00
        O1          O  0.6918519  0.4708950  0.5000020    0.00000       Uiso       1.00
        O1          O  0.4708950  0.6918519  0.5000020    0.00000       Uiso       1.00
        O1          O  0.5291054  0.3081485  0.5000020    0.00000       Uiso       1.00
        O1          O  0.6918519  0.5291054  0.5000020    0.00000       Uiso       1.00
        O1          O  0.3081485  0.4708950  0.5000020    0.00000       Uiso       1.00
        H1          H  0.5605304  0.6317412  0.5000020    0.00000       Uiso       1.00
        H1          H  0.4394699  0.3682592  0.5000020    0.00000       Uiso       1.00
        H1          H  0.3682592  0.5605304  0.5000020    0.00000       Uiso       1.00
        H1          H  0.6317412  0.4394699  0.5000020    0.00000       Uiso       1.00
        H1          H  0.4394699  0.6317412  0.5000020    0.00000       Uiso       1.00
        H1          H  0.5605304  0.3682592  0.5000020    0.00000       Uiso       1.00
        H1          H  0.6317412  0.5605304  0.5000020    0.00000       Uiso       1.00
        H1          H  0.3682592  0.4394699  0.5000020    0.00000       Uiso       1.00
        N1          N  0.5586656  0.5586656  0.5000020    0.00000       Uiso       1.00
        N1          N  0.4413347  0.4413347  0.5000020    0.00000       Uiso       1.00
        N1          N  0.4413347  0.5586656  0.5000020    0.00000       Uiso       1.00
        N1          N  0.5586656  0.4413347  0.5000020    0.00000       Uiso       1.00
        B1          B  0.5000002  0.7121910  0.5000020    0.00000       Uiso       1.00
        B2          B  0.5000002  0.2878093  0.5000020    0.00000       Uiso       1.00
        B3          B  0.2878093  0.5000002  0.5000020    0.00000       Uiso       1.00
        B4          B  0.7121910  0.5000002  0.5000020    0.00000       Uiso       1.00
        C1          C  0.9824023  0.4695912  0.5000020    0.00000       Uiso       1.00
        C2          C  0.0364914  0.5597894  0.5000020    0.00000       Uiso       1.00
        C3          C  0.0708886  0.5594174  0.5000020    0.00000       Uiso       1.00
        C4          C  0.0887968  0.5295873  0.5000020    0.00000       Uiso       1.00
        C5          C  0.1239249  0.4715656  0.5000020    0.00000       Uiso       1.00
        H1          H  0.0260360  0.5825239  0.5000020    0.00000       Uiso       1.00
        H2          H  0.0829809  0.5815735  0.5000020    0.00000       Uiso       1.00
        O1          O  0.1362947  0.4434304  0.5000020    0.00000       Uiso       1.00
        C6          C  0.8015806  0.5290120  0.5000020    0.00000       Uiso       1.00
        C7          C  0.7668455  0.5294803  0.5000020    0.00000       Uiso       1.00
        H3          H  0.8109889  0.5519255  0.5000020    0.00000       Uiso       1.00
        H4          H  0.7546075  0.5516368  0.5000020    0.00000       Uiso       1.00
        C8          C  0.0175980  0.5304092  0.5000020    0.00000       Uiso       1.00
        C9          C  0.9635090  0.4402109  0.5000020    0.00000       Uiso       1.00
       C10          C  0.9291118  0.4405829  0.5000020    0.00000       Uiso       1.00
       C11          C  0.9112036  0.4704131  0.5000020    0.00000       Uiso       1.00
       C12          C  0.8760754  0.5284348  0.5000020    0.00000       Uiso       1.00
        H5          H  0.9739644  0.4174765  0.5000020    0.00000       Uiso       1.00
        H6          H  0.9170194  0.4184268  0.5000020    0.00000       Uiso       1.00
        O2          O  0.8637057  0.5565699  0.5000020    0.00000       Uiso       1.00
       C13          C  0.1984198  0.4709883  0.5000020    0.00000       Uiso       1.00
       C14          C  0.2331549  0.4705200  0.5000020    0.00000       Uiso       1.00
        H7          H  0.1890115  0.4480748  0.5000020    0.00000       Uiso       1.00
        H8          H  0.2453929  0.4483636  0.5000020    0.00000       Uiso       1.00
       C15          C  0.5304092  0.9824023  0.5000020    0.00000       Uiso       1.00
       C16          C  0.4402109  0.0364914  0.5000020    0.00000       Uiso       1.00
       C17          C  0.4405829  0.0708886  0.5000020    0.00000       Uiso       1.00
       C18          C  0.4704131  0.0887968  0.5000020    0.00000       Uiso       1.00
       C19          C  0.5284348  0.1239249  0.5000020    0.00000       Uiso       1.00
        H9          H  0.4174765  0.0260360  0.5000020    0.00000       Uiso       1.00
       H10          H  0.4184268  0.0829809  0.5000020    0.00000       Uiso       1.00
        O3          O  0.5565699  0.1362947  0.5000020    0.00000       Uiso       1.00
       C20          C  0.4709883  0.8015806  0.5000020    0.00000       Uiso       1.00
       C21          C  0.4705200  0.7668455  0.5000020    0.00000       Uiso       1.00
       H11          H  0.4480748  0.8109889  0.5000020    0.00000       Uiso       1.00
       H12          H  0.4483636  0.7546075  0.5000020    0.00000       Uiso       1.00
       C22          C  0.4695912  0.0175980  0.5000020    0.00000       Uiso       1.00
       C23          C  0.5597894  0.9635090  0.5000020    0.00000       Uiso       1.00
       C24          C  0.5594174  0.9291118  0.5000020    0.00000       Uiso       1.00
       C25          C  0.5295873  0.9112036  0.5000020    0.00000       Uiso       1.00
       C26          C  0.4715656  0.8760754  0.5000020    0.00000       Uiso       1.00
       H13          H  0.5825239  0.9739644  0.5000020    0.00000       Uiso       1.00
       H14          H  0.5815735  0.9170194  0.5000020    0.00000       Uiso       1.00
        O4          O  0.4434304  0.8637057  0.5000020    0.00000       Uiso       1.00
       C27          C  0.5290120  0.1984198  0.5000020    0.00000       Uiso       1.00
       C28          C  0.5294803  0.2331549  0.5000020    0.00000       Uiso       1.00
       H15          H  0.5519255  0.1890115  0.5000020    0.00000       Uiso       1.00
       H16          H  0.5516368  0.2453929  0.5000020    0.00000       Uiso       1.00
       C29          C  0.0175980  0.4695912  0.5000020    0.00000       Uiso       1.00
       C30          C  0.9635090  0.5597894  0.5000020    0.00000       Uiso       1.00
       C31          C  0.9291118  0.5594174  0.5000020    0.00000       Uiso       1.00
       C32          C  0.9112036  0.5295873  0.5000020    0.00000       Uiso       1.00
       C33          C  0.8760754  0.4715656  0.5000020    0.00000       Uiso       1.00
       H17          H  0.9739644  0.5825239  0.5000020    0.00000       Uiso       1.00
       H18          H  0.9170194  0.5815735  0.5000020    0.00000       Uiso       1.00
        O5          O  0.8637057  0.4434304  0.5000020    0.00000       Uiso       1.00
       C34          C  0.1984198  0.5290120  0.5000020    0.00000       Uiso       1.00
       C35          C  0.2331549  0.5294803  0.5000020    0.00000       Uiso       1.00
       H19          H  0.1890115  0.5519255  0.5000020    0.00000       Uiso       1.00
       H20          H  0.2453929  0.5516368  0.5000020    0.00000       Uiso       1.00
       C36          C  0.9824023  0.5304092  0.5000020    0.00000       Uiso       1.00
       C37          C  0.0364914  0.4402109  0.5000020    0.00000       Uiso       1.00
       C38          C  0.0708886  0.4405829  0.5000020    0.00000       Uiso       1.00
       C39          C  0.0887968  0.4704131  0.5000020    0.00000       Uiso       1.00
       C40          C  0.1239249  0.5284348  0.5000020    0.00000       Uiso       1.00
       H21          H  0.0260360  0.4174765  0.5000020    0.00000       Uiso       1.00
       H22          H  0.0829809  0.4184268  0.5000020    0.00000       Uiso       1.00
        O6          O  0.1362947  0.5565699  0.5000020    0.00000       Uiso       1.00
       C41          C  0.8015806  0.4709883  0.5000020    0.00000       Uiso       1.00
       C42          C  0.7668455  0.4705200  0.5000020    0.00000       Uiso       1.00
       H23          H  0.8109889  0.4480748  0.5000020    0.00000       Uiso       1.00
       H24          H  0.7546075  0.4483636  0.5000020    0.00000       Uiso       1.00
       C43          C  0.4695912  0.9824023  0.5000020    0.00000       Uiso       1.00
       C44          C  0.5597894  0.0364914  0.5000020    0.00000       Uiso       1.00
       C45          C  0.5594174  0.0708886  0.5000020    0.00000       Uiso       1.00
       C46          C  0.5295873  0.0887968  0.5000020    0.00000       Uiso       1.00
       C47          C  0.4715656  0.1239249  0.5000020    0.00000       Uiso       1.00
       H25          H  0.5825239  0.0260360  0.5000020    0.00000       Uiso       1.00
       H26          H  0.5815735  0.0829809  0.5000020    0.00000       Uiso       1.00
        O7          O  0.4434304  0.1362947  0.5000020    0.00000       Uiso       1.00
       C48          C  0.5290120  0.8015806  0.5000020    0.00000       Uiso       1.00
       C49          C  0.5294803  0.7668455  0.5000020    0.00000       Uiso       1.00
       H27          H  0.5519255  0.8109889  0.5000020    0.00000       Uiso       1.00
       H28          H  0.5516368  0.7546075  0.5000020    0.00000       Uiso       1.00
       C50          C  0.5304092  0.0175980  0.5000020    0.00000       Uiso       1.00
       C51          C  0.4402109  0.9635090  0.5000020    0.00000       Uiso       1.00
       C52          C  0.4405829  0.9291118  0.5000020    0.00000       Uiso       1.00
       C53          C  0.4704131  0.9112036  0.5000020    0.00000       Uiso       1.00
       C54          C  0.5284348  0.8760754  0.5000020    0.00000       Uiso       1.00
       H29          H  0.4174765  0.9739644  0.5000020    0.00000       Uiso       1.00
       H30          H  0.4184268  0.9170194  0.5000020    0.00000       Uiso       1.00
        O8          O  0.5565699  0.8637057  0.5000020    0.00000       Uiso       1.00
       C55          C  0.4709883  0.1984198  0.5000020    0.00000       Uiso       1.00
       C56          C  0.4705200  0.2331549  0.5000020    0.00000       Uiso       1.00
       H31          H  0.4480748  0.1890115  0.5000020    0.00000       Uiso       1.00
       H32          H  0.4483636  0.2453929  0.5000020    0.00000       Uiso       1.00
       C57          C  0.9647906  0.5000002  0.5000020    0.00000       Uiso       1.00
       C58          C  0.0706052  0.5000002  0.5000020    0.00000       Uiso       1.00
        N1          N  0.1431119  0.5000002  0.5000020    0.00000       Uiso       1.00
       C59          C  0.1781015  0.5000002  0.5000020    0.00000       Uiso       1.00
       C60          C  0.7488992  0.5000002  0.5000020    0.00000       Uiso       1.00
       C61          C  0.0352097  0.5000002  0.5000020    0.00000       Uiso       1.00
       C62          C  0.9293951  0.5000002  0.5000020    0.00000       Uiso       1.00
        N2          N  0.8568884  0.5000002  0.5000020    0.00000       Uiso       1.00
       C63          C  0.8218989  0.5000002  0.5000020    0.00000       Uiso       1.00
       C64          C  0.2511012  0.5000002  0.5000020    0.00000       Uiso       1.00
       C65          C  0.5000002  0.9647906  0.5000020    0.00000       Uiso       1.00
       C66          C  0.5000002  0.0706052  0.5000020    0.00000       Uiso       1.00
        N3          N  0.5000002  0.1431119  0.5000020    0.00000       Uiso       1.00
       C67          C  0.5000002  0.1781015  0.5000020    0.00000       Uiso       1.00
       C68          C  0.5000002  0.7488992  0.5000020    0.00000       Uiso       1.00
       C69          C  0.5000002  0.0352097  0.5000020    0.00000       Uiso       1.00
       C70          C  0.5000002  0.9293951  0.5000020    0.00000       Uiso       1.00
        N4          N  0.5000002  0.8568884  0.5000020    0.00000       Uiso       1.00
       C71          C  0.5000002  0.8218989  0.5000020    0.00000       Uiso       1.00
       C72          C  0.5000002  0.2511012  0.5000020    0.00000       Uiso       1.00
       Ni1         Ni  0.5000002  0.5000002  0.5000020    0.00000       Uiso       1.00
        N5          N  0.5000002  0.5499316  0.5000020    0.00000       Uiso       1.00
        N5          N  0.5000002  0.4500688  0.5000020    0.00000       Uiso       1.00
        N5          N  0.4500688  0.5000002  0.5000020    0.00000       Uiso       1.00
        N5          N  0.5499316  0.5000002  0.5000020    0.00000       Uiso       1.00
