data_4PE-3P
_audit_creation_date              0000-00-00
_audit_creation_method            'LanYouShi'
_symmetry_space_group_name_H-M    'P1'
_cell_length_a                    54.8381996
_cell_length_b                    54.8381996
_cell_length_c                    4.8042002
_cell_angle_alpha                 90.0000000
_cell_angle_beta                  90.0000000
_cell_angle_gamma                 120.0000000
loop_
_atom_site_label
_atom_site_type_symbol
_atom_site_fract_x
_atom_site_fract_y
_atom_site_fract_z
_atom_site_U_iso_or_equiv
_atom_site_adp_type
_atom_site_occupancy
        C1          C  0.4871998  0.4878998  0.4998984    0.00000       Uiso       1.00
        C2          C  0.4601212  0.4874891  0.5048958    0.00000       Uiso       1.00
        C3          C  0.4375555  0.4677232  0.3424418    0.00000       Uiso       1.00
        C4          C  0.4119850  0.4668116  0.3394120    0.00000       Uiso       1.00
        C5          C  0.4083611  0.4862652  0.4985429    0.00000       Uiso       1.00
        C6          C  0.4306134  0.5059239  0.6641066    0.00000       Uiso       1.00
        C7          C  0.4556970  0.5061354  0.6692642    0.00000       Uiso       1.00
        C8          C  0.4837190  0.4595809  0.4956072    0.00000       Uiso       1.00
        C9          C  0.4623998  0.4383118  0.6582327    0.00000       Uiso       1.00
       C10          C  0.4580510  0.4113484  0.6595850    0.00000       Uiso       1.00
       C11          C  0.4756264  0.4050065  0.5017535    0.00000       Uiso       1.00
       C12          C  0.4969140  0.4259799  0.3375037    0.00000       Uiso       1.00
       C13          C  0.5006056  0.4526730  0.3328677    0.00000       Uiso       1.00
       C14          C  0.3600170  0.4661884  0.5520990    0.00000       Uiso       1.00
       C15          C  0.3342287  0.4670706  0.5149702    0.00000       Uiso       1.00
       C16          C  0.3101615  0.4482014  0.6632534    0.00000       Uiso       1.00
       C17          C  0.2864780  0.4509903  0.6563084    0.00000       Uiso       1.00
       C18          C  0.2865707  0.4724522  0.4976756    0.00000       Uiso       1.00
       C19          C  0.3104355  0.4905088  0.3396041    0.00000       Uiso       1.00
       C20          C  0.3340140  0.4878215  0.3462637    0.00000       Uiso       1.00
       C21          C  0.2621810  0.4763446  0.4981959    0.00000       Uiso       1.00
       C22          C  0.4919157  0.3743981  0.5780401    0.00000       Uiso       1.00
       C23          C  0.4903121  0.3473783  0.5550259    0.00000       Uiso       1.00
       C24          C  0.5101697  0.3426727  0.6900810    0.00000       Uiso       1.00
       C25          C  0.5087627  0.3169428  0.6657286    0.00000       Uiso       1.00
       C26          C  0.4869855  0.2952049  0.5128819    0.00000       Uiso       1.00
       C27          C  0.4670686  0.3000737  0.3800918    0.00000       Uiso       1.00
       C28          C  0.4688511  0.3258969  0.3961147    0.00000       Uiso       1.00
       C29          C  0.4841713  0.2674811  0.5025023    0.00000       Uiso       1.00
       C30          C  0.5073569  0.2633964  0.5017256    0.00000       Uiso       1.00
       C31          C  0.4572011  0.2436916  0.5004402    0.00000       Uiso       1.00
       C32          C  0.5037729  0.2367256  0.4979366    0.00000       Uiso       1.00
       C33          C  0.2350042  0.4531536  0.5004549    0.00000       Uiso       1.00
        H1          H  0.4730997  0.5212997  0.8134974    0.00000       Uiso       1.00
        H2          H  0.4406998  0.4527998  0.2032994    0.00000       Uiso       1.00
        H3          H  0.3949998  0.4520997  0.1918994    0.00000       Uiso       1.00
        H4          H  0.4274998  0.5205997  0.8055974    0.00000       Uiso       1.00
        H5          H  0.4489998  0.4435998  0.7989975    0.00000       Uiso       1.00
        H6          H  0.4416998  0.3951998  0.8024974    0.00000       Uiso       1.00
        H7          H  0.5098997  0.4207998  0.1945994    0.00000       Uiso       1.00
        H8          H  0.5170997  0.4690998  0.1908994    0.00000       Uiso       1.00
        H9          H  0.3586998  0.4472998  0.6594979    0.00000       Uiso       1.00
       H10          H  0.3111998  0.4322998  0.8086975    0.00000       Uiso       1.00
       H11          H  0.2685999  0.4373998  0.7961975    0.00000       Uiso       1.00
       H12          H  0.3103998  0.5065997  0.1956994    0.00000       Uiso       1.00
       H13          H  0.3534998  0.5017997  0.2154993    0.00000       Uiso       1.00
       H14          H  0.5115997  0.3923998  0.6737978    0.00000       Uiso       1.00
       H15          H  0.5263997  0.3598998  0.8345974    0.00000       Uiso       1.00
       H16          H  0.5237997  0.3134998  0.7899975    0.00000       Uiso       1.00
       H17          H  0.4505998  0.2837998  0.2445992    0.00000       Uiso       1.00
       H18          H  0.4540997  0.3309998  0.2788991    0.00000       Uiso       1.00
       H19          H  0.5280997  0.2821998  0.5019984    0.00000       Uiso       1.00
       H20          H  0.4386998  0.2469999  0.5046984    0.00000       Uiso       1.00
       H21          H  0.2872998  0.5216997  0.4983984    0.00000       Uiso       1.00
       H22          H  0.2331999  0.4323997  0.4996984    0.00000       Uiso       1.00
        N1          N  0.3837773  0.4870521  0.4839859    0.00000       Uiso       1.00
        N2          N  0.4717085  0.3781677  0.5027064    0.00000       Uiso       1.00
       C34          C  0.5120997  0.9992995  0.4998984    0.00000       Uiso       1.00
       C35          C  0.5125103  0.9726316  0.5048958    0.00000       Uiso       1.00
       C36          C  0.5322763  0.9698318  0.3424418    0.00000       Uiso       1.00
       C37          C  0.5331879  0.9451729  0.3394120    0.00000       Uiso       1.00
       C38          C  0.5137343  0.9220954  0.4985429    0.00000       Uiso       1.00
       C39          C  0.4940755  0.9246889  0.6641066    0.00000       Uiso       1.00
       C40          C  0.4938640  0.9495609  0.6692642    0.00000       Uiso       1.00
       C41          C  0.5404185  0.0241381  0.4956072    0.00000       Uiso       1.00
       C42          C  0.5616877  0.0240880  0.6582327    0.00000       Uiso       1.00
       C43          C  0.5886511  0.0467027  0.6595850    0.00000       Uiso       1.00
       C44          C  0.5949929  0.0706200  0.5017535    0.00000       Uiso       1.00
       C45          C  0.5740196  0.0709342  0.3375037    0.00000       Uiso       1.00
       C46          C  0.5473264  0.0479326  0.3328677    0.00000       Uiso       1.00
       C47          C  0.5338111  0.8938281  0.5520990    0.00000       Uiso       1.00
       C48          C  0.5329288  0.8671575  0.5149702    0.00000       Uiso       1.00
       C49          C  0.5517981  0.8619596  0.6632534    0.00000       Uiso       1.00
       C50          C  0.5490091  0.8354871  0.6563084    0.00000       Uiso       1.00
       C51          C  0.5275473  0.8141179  0.4976756    0.00000       Uiso       1.00
       C52          C  0.5094906  0.8199262  0.3396041    0.00000       Uiso       1.00
       C53          C  0.5121779  0.8461919  0.3462637    0.00000       Uiso       1.00
       C54          C  0.5236548  0.7858359  0.4981959    0.00000       Uiso       1.00
       C55          C  0.6256014  0.1175176  0.5780401    0.00000       Uiso       1.00
       C56          C  0.6526212  0.1429338  0.5550259    0.00000       Uiso       1.00
       C57          C  0.6573268  0.1674970  0.6900810    0.00000       Uiso       1.00
       C58          C  0.6830567  0.1918199  0.6657286    0.00000       Uiso       1.00
       C59          C  0.7047945  0.1917806  0.5128819    0.00000       Uiso       1.00
       C60          C  0.6999257  0.1669949  0.3800918    0.00000       Uiso       1.00
       C61          C  0.6741025  0.1429542  0.3961147    0.00000       Uiso       1.00
       C62          C  0.7325183  0.2166902  0.5025023    0.00000       Uiso       1.00
       C63          C  0.7366031  0.2439606  0.5017256    0.00000       Uiso       1.00
       C64          C  0.7563079  0.2135095  0.5004402    0.00000       Uiso       1.00
       C65          C  0.7632738  0.2670473  0.4979366    0.00000       Uiso       1.00
       C66          C  0.5468459  0.7818501  0.5004549    0.00000       Uiso       1.00
       H23          H  0.4786997  0.9517995  0.8134974    0.00000       Uiso       1.00
       H24          H  0.5471997  0.9878994  0.2032994    0.00000       Uiso       1.00
       H25          H  0.5478997  0.9428995  0.1918994    0.00000       Uiso       1.00
       H26          H  0.4793997  0.9068995  0.8055974    0.00000       Uiso       1.00
       H27          H  0.5563997  0.0054000  0.7989975    0.00000       Uiso       1.00
       H28          H  0.6047997  0.0465000  0.8024974    0.00000       Uiso       1.00
       H29          H  0.5791997  0.0891000  0.1945994    0.00000       Uiso       1.00
       H30          H  0.5308997  0.0480000  0.1908994    0.00000       Uiso       1.00
       H31          H  0.5526997  0.9113995  0.6594979    0.00000       Uiso       1.00
       H32          H  0.5676997  0.8788995  0.8086975    0.00000       Uiso       1.00
       H33          H  0.5625997  0.8311995  0.7961975    0.00000       Uiso       1.00
       H34          H  0.4933997  0.8037996  0.1956994    0.00000       Uiso       1.00
       H35          H  0.4981997  0.8516995  0.2154993    0.00000       Uiso       1.00
       H36          H  0.6075997  0.1191999  0.6737978    0.00000       Uiso       1.00
       H37          H  0.6400996  0.1664999  0.8345974    0.00000       Uiso       1.00
       H38          H  0.6864997  0.2102999  0.7899975    0.00000       Uiso       1.00
       H39          H  0.7161996  0.1667999  0.2445992    0.00000       Uiso       1.00
       H40          H  0.6689997  0.1230999  0.2788991    0.00000       Uiso       1.00
       H41          H  0.7177997  0.2458999  0.5019984    0.00000       Uiso       1.00
       H42          H  0.7529996  0.1916999  0.5046984    0.00000       Uiso       1.00
       H43          H  0.4782997  0.7655995  0.4983984    0.00000       Uiso       1.00
       H44          H  0.5675997  0.8007995  0.4996984    0.00000       Uiso       1.00
        N3          N  0.5129474  0.8967247  0.4839859    0.00000       Uiso       1.00
        N4          N  0.6218318  0.0935409  0.5027064    0.00000       Uiso       1.00
       C67          C  0.0007000  0.5127997  0.4998984    0.00000       Uiso       1.00
       C68          C  0.0273679  0.5398782  0.5048958    0.00000       Uiso       1.00
       C69          C  0.0301677  0.5624440  0.3424418    0.00000       Uiso       1.00
       C70          C  0.0548266  0.5880145  0.3394120    0.00000       Uiso       1.00
       C71          C  0.0779041  0.5916384  0.4985429    0.00000       Uiso       1.00
       C72          C  0.0753106  0.5693861  0.6641066    0.00000       Uiso       1.00
       C73          C  0.0504385  0.5443025  0.6692642    0.00000       Uiso       1.00
       C74          C  0.9758614  0.5162804  0.4956072    0.00000       Uiso       1.00
       C75          C  0.9759115  0.5375997  0.6582327    0.00000       Uiso       1.00
       C76          C  0.9532968  0.5419484  0.6595850    0.00000       Uiso       1.00
       C77          C  0.9293795  0.5243730  0.5017535    0.00000       Uiso       1.00
       C78          C  0.9290653  0.5030854  0.3375037    0.00000       Uiso       1.00
       C79          C  0.9520669  0.4993938  0.3328677    0.00000       Uiso       1.00
       C80          C  0.1061713  0.6399825  0.5520990    0.00000       Uiso       1.00
       C81          C  0.1328419  0.6657708  0.5149702    0.00000       Uiso       1.00
       C82          C  0.1380399  0.6898380  0.6632534    0.00000       Uiso       1.00
       C83          C  0.1645123  0.7135214  0.6563084    0.00000       Uiso       1.00
       C84          C  0.1858815  0.7134288  0.4976756    0.00000       Uiso       1.00
       C85          C  0.1800733  0.6895639  0.3396041    0.00000       Uiso       1.00
       C86          C  0.1538075  0.6659854  0.3462637    0.00000       Uiso       1.00
       C87          C  0.2141636  0.7378184  0.4981959    0.00000       Uiso       1.00
       C88          C  0.8824818  0.5080837  0.5780401    0.00000       Uiso       1.00
       C89          C  0.8570656  0.5096873  0.5550259    0.00000       Uiso       1.00
       C90          C  0.8325024  0.4898297  0.6900810    0.00000       Uiso       1.00
       C91          C  0.8081796  0.4912367  0.6657286    0.00000       Uiso       1.00
       C92          C  0.8082188  0.5130140  0.5128819    0.00000       Uiso       1.00
       C93          C  0.8330045  0.5329308  0.3800918    0.00000       Uiso       1.00
       C94          C  0.8570452  0.5311483  0.3961147    0.00000       Uiso       1.00
       C95          C  0.7833093  0.5158281  0.5025023    0.00000       Uiso       1.00
       C96          C  0.7560389  0.4926425  0.5017256    0.00000       Uiso       1.00
       C97          C  0.7864900  0.5427984  0.5004402    0.00000       Uiso       1.00
       C98          C  0.7329521  0.4962265  0.4979366    0.00000       Uiso       1.00
       C99          C  0.2181494  0.7649953  0.5004549    0.00000       Uiso       1.00
       H45          H  0.0482000  0.5268997  0.8134974    0.00000       Uiso       1.00
       H46          H  0.0121000  0.5592997  0.2032994    0.00000       Uiso       1.00
       H47          H  0.0571000  0.6049997  0.1918994    0.00000       Uiso       1.00
       H48          H  0.0931000  0.5724997  0.8055974    0.00000       Uiso       1.00
       H49          H  0.9945995  0.5509997  0.7989975    0.00000       Uiso       1.00
       H50          H  0.9534995  0.5582997  0.8024974    0.00000       Uiso       1.00
       H51          H  0.9108995  0.4900998  0.1945994    0.00000       Uiso       1.00
       H52          H  0.9519995  0.4828997  0.1908994    0.00000       Uiso       1.00
       H53          H  0.0885999  0.6412997  0.6594979    0.00000       Uiso       1.00
       H54          H  0.1210999  0.6887996  0.8086975    0.00000       Uiso       1.00
       H55          H  0.1687999  0.7313996  0.7961975    0.00000       Uiso       1.00
       H56          H  0.1961999  0.6895996  0.1956994    0.00000       Uiso       1.00
       H57          H  0.1482999  0.6464996  0.2154993    0.00000       Uiso       1.00
       H58          H  0.8807995  0.4883997  0.6737978    0.00000       Uiso       1.00
       H59          H  0.8334996  0.4735998  0.8345974    0.00000       Uiso       1.00
       H60          H  0.7896996  0.4761997  0.7899975    0.00000       Uiso       1.00
       H61          H  0.8331996  0.5493997  0.2445992    0.00000       Uiso       1.00
       H62          H  0.8768995  0.5458997  0.2788991    0.00000       Uiso       1.00
       H63          H  0.7540996  0.4718997  0.5019984    0.00000       Uiso       1.00
       H64          H  0.8082995  0.5612997  0.5046984    0.00000       Uiso       1.00
       H65          H  0.2343999  0.7126996  0.4983984    0.00000       Uiso       1.00
       H66          H  0.1991999  0.7667996  0.4996984    0.00000       Uiso       1.00
        N5          N  0.1032747  0.6162221  0.4839859    0.00000       Uiso       1.00
        N6          N  0.9064586  0.5282909  0.5027064    0.00000       Uiso       1.00
      C100          C  0.5127997  0.5120997  0.4998984    0.00000       Uiso       1.00
      C101          C  0.5398782  0.5125103  0.5048958    0.00000       Uiso       1.00
      C102          C  0.5624440  0.5322763  0.3424418    0.00000       Uiso       1.00
      C103          C  0.5880145  0.5331879  0.3394120    0.00000       Uiso       1.00
      C104          C  0.5916384  0.5137343  0.4985429    0.00000       Uiso       1.00
      C105          C  0.5693861  0.4940755  0.6641066    0.00000       Uiso       1.00
      C106          C  0.5443025  0.4938640  0.6692642    0.00000       Uiso       1.00
      C107          C  0.5162804  0.5404185  0.4956072    0.00000       Uiso       1.00
      C108          C  0.5375997  0.5616877  0.6582327    0.00000       Uiso       1.00
      C109          C  0.5419484  0.5886511  0.6595850    0.00000       Uiso       1.00
      C110          C  0.5243731  0.5949930  0.5017535    0.00000       Uiso       1.00
      C111          C  0.5030854  0.5740196  0.3375037    0.00000       Uiso       1.00
      C112          C  0.4993939  0.5473264  0.3328677    0.00000       Uiso       1.00
      C113          C  0.6399825  0.5338111  0.5520990    0.00000       Uiso       1.00
      C114          C  0.6657707  0.5329288  0.5149702    0.00000       Uiso       1.00
      C115          C  0.6898379  0.5517981  0.6632534    0.00000       Uiso       1.00
      C116          C  0.7135214  0.5490091  0.6563084    0.00000       Uiso       1.00
      C117          C  0.7134288  0.5275473  0.4976756    0.00000       Uiso       1.00
      C118          C  0.6895639  0.5094907  0.3396041    0.00000       Uiso       1.00
      C119          C  0.6659855  0.5121779  0.3462637    0.00000       Uiso       1.00
      C120          C  0.7378184  0.5236548  0.4981959    0.00000       Uiso       1.00
      C121          C  0.5080838  0.6256014  0.5780401    0.00000       Uiso       1.00
      C122          C  0.5096874  0.6526212  0.5550259    0.00000       Uiso       1.00
      C123          C  0.4898297  0.6573268  0.6900810    0.00000       Uiso       1.00
      C124          C  0.4912367  0.6830566  0.6657286    0.00000       Uiso       1.00
      C125          C  0.5130139  0.7047945  0.5128819    0.00000       Uiso       1.00
      C126          C  0.5329308  0.6999257  0.3800918    0.00000       Uiso       1.00
      C127          C  0.5311483  0.6741025  0.3961147    0.00000       Uiso       1.00
      C128          C  0.5158281  0.7325183  0.5025023    0.00000       Uiso       1.00
      C129          C  0.4926425  0.7366031  0.5017256    0.00000       Uiso       1.00
      C130          C  0.5427984  0.7563079  0.5004402    0.00000       Uiso       1.00
      C131          C  0.4962265  0.7632738  0.4979366    0.00000       Uiso       1.00
      C132          C  0.7649953  0.5468459  0.5004549    0.00000       Uiso       1.00
       H67          H  0.5268997  0.4786997  0.8134974    0.00000       Uiso       1.00
       H68          H  0.5592997  0.5471997  0.2032994    0.00000       Uiso       1.00
       H69          H  0.6049997  0.5478997  0.1918994    0.00000       Uiso       1.00
       H70          H  0.5724997  0.4793998  0.8055974    0.00000       Uiso       1.00
       H71          H  0.5509997  0.5563997  0.7989975    0.00000       Uiso       1.00
       H72          H  0.5582997  0.6047997  0.8024974    0.00000       Uiso       1.00
       H73          H  0.4900997  0.5791997  0.1945994    0.00000       Uiso       1.00
       H74          H  0.4828997  0.5308997  0.1908994    0.00000       Uiso       1.00
       H75          H  0.6412997  0.5526997  0.6594979    0.00000       Uiso       1.00
       H76          H  0.6887996  0.5676997  0.8086975    0.00000       Uiso       1.00
       H77          H  0.7313996  0.5625997  0.7961975    0.00000       Uiso       1.00
       H78          H  0.6895996  0.4933997  0.1956994    0.00000       Uiso       1.00
       H79          H  0.6464996  0.4981997  0.2154993    0.00000       Uiso       1.00
       H80          H  0.4883997  0.6075997  0.6737978    0.00000       Uiso       1.00
       H81          H  0.4735997  0.6400996  0.8345974    0.00000       Uiso       1.00
       H82          H  0.4761997  0.6864996  0.7899975    0.00000       Uiso       1.00
       H83          H  0.5493997  0.7161996  0.2445992    0.00000       Uiso       1.00
       H84          H  0.5458997  0.6689996  0.2788991    0.00000       Uiso       1.00
       H85          H  0.4718997  0.7177996  0.5019984    0.00000       Uiso       1.00
       H86          H  0.5612997  0.7529996  0.5046984    0.00000       Uiso       1.00
       H87          H  0.7126996  0.4782998  0.4983984    0.00000       Uiso       1.00
       H88          H  0.7667996  0.5675997  0.4996984    0.00000       Uiso       1.00
        N7          N  0.6162221  0.5129474  0.4839859    0.00000       Uiso       1.00
        N8          N  0.5282909  0.6218318  0.5027064    0.00000       Uiso       1.00
      C133          C  0.4878997  0.0007000  0.4998984    0.00000       Uiso       1.00
      C134          C  0.4874891  0.0273679  0.5048958    0.00000       Uiso       1.00
      C135          C  0.4677231  0.0301677  0.3424418    0.00000       Uiso       1.00
      C136          C  0.4668115  0.0548266  0.3394120    0.00000       Uiso       1.00
      C137          C  0.4862652  0.0779041  0.4985429    0.00000       Uiso       1.00
      C138          C  0.5059239  0.0753106  0.6641066    0.00000       Uiso       1.00
      C139          C  0.5061354  0.0504385  0.6692642    0.00000       Uiso       1.00
      C140          C  0.4595809  0.9758613  0.4956072    0.00000       Uiso       1.00
      C141          C  0.4383118  0.9759114  0.6582327    0.00000       Uiso       1.00
      C142          C  0.4113484  0.9532968  0.6595850    0.00000       Uiso       1.00
      C143          C  0.4050065  0.9293795  0.5017535    0.00000       Uiso       1.00
      C144          C  0.4259799  0.9290653  0.3375037    0.00000       Uiso       1.00
      C145          C  0.4526731  0.9520669  0.3328677    0.00000       Uiso       1.00
      C146          C  0.4661883  0.1061713  0.5520990    0.00000       Uiso       1.00
      C147          C  0.4670706  0.1328419  0.5149702    0.00000       Uiso       1.00
      C148          C  0.4482014  0.1380398  0.6632534    0.00000       Uiso       1.00
      C149          C  0.4509904  0.1645123  0.6563084    0.00000       Uiso       1.00
      C150          C  0.4724521  0.1858815  0.4976756    0.00000       Uiso       1.00
      C151          C  0.4905089  0.1800733  0.3396041    0.00000       Uiso       1.00
      C152          C  0.4878215  0.1538075  0.3462637    0.00000       Uiso       1.00
      C153          C  0.4763446  0.2141636  0.4981959    0.00000       Uiso       1.00
      C154          C  0.3743981  0.8824818  0.5780401    0.00000       Uiso       1.00
      C155          C  0.3473783  0.8570657  0.5550259    0.00000       Uiso       1.00
      C156          C  0.3426727  0.8325024  0.6900810    0.00000       Uiso       1.00
      C157          C  0.3169428  0.8081796  0.6657286    0.00000       Uiso       1.00
      C158          C  0.2952049  0.8082188  0.5128819    0.00000       Uiso       1.00
      C159          C  0.3000737  0.8330045  0.3800918    0.00000       Uiso       1.00
      C160          C  0.3258969  0.8570452  0.3961147    0.00000       Uiso       1.00
      C161          C  0.2674811  0.7833093  0.5025023    0.00000       Uiso       1.00
      C162          C  0.2633964  0.7560389  0.5017256    0.00000       Uiso       1.00
      C163          C  0.2436915  0.7864900  0.5004402    0.00000       Uiso       1.00
      C164          C  0.2367256  0.7329521  0.4979366    0.00000       Uiso       1.00
      C165          C  0.4531536  0.2181494  0.5004549    0.00000       Uiso       1.00
       H89          H  0.5212997  0.0482000  0.8134974    0.00000       Uiso       1.00
       H90          H  0.4527998  0.0121000  0.2032994    0.00000       Uiso       1.00
       H91          H  0.4520998  0.0571000  0.1918994    0.00000       Uiso       1.00
       H92          H  0.5205997  0.0931000  0.8055974    0.00000       Uiso       1.00
       H93          H  0.4435998  0.9945995  0.7989975    0.00000       Uiso       1.00
       H94          H  0.3951998  0.9534995  0.8024974    0.00000       Uiso       1.00
       H95          H  0.4207998  0.9108995  0.1945994    0.00000       Uiso       1.00
       H96          H  0.4690998  0.9519995  0.1908994    0.00000       Uiso       1.00
       H97          H  0.4472998  0.0886000  0.6594979    0.00000       Uiso       1.00
       H98          H  0.4322998  0.1210999  0.8086975    0.00000       Uiso       1.00
       H99          H  0.4373997  0.1687999  0.7961975    0.00000       Uiso       1.00
      H100          H  0.5065997  0.1961999  0.1956994    0.00000       Uiso       1.00
      H101          H  0.5017998  0.1482999  0.2154993    0.00000       Uiso       1.00
      H102          H  0.3923998  0.8807995  0.6737978    0.00000       Uiso       1.00
      H103          H  0.3598998  0.8334995  0.8345974    0.00000       Uiso       1.00
      H104          H  0.3134998  0.7896996  0.7899975    0.00000       Uiso       1.00
      H105          H  0.2837999  0.8331996  0.2445992    0.00000       Uiso       1.00
      H106          H  0.3309999  0.8768995  0.2788991    0.00000       Uiso       1.00
      H107          H  0.2821998  0.7540995  0.5019984    0.00000       Uiso       1.00
      H108          H  0.2469999  0.8082996  0.5046984    0.00000       Uiso       1.00
      H109          H  0.5216997  0.2343999  0.4983984    0.00000       Uiso       1.00
      H110          H  0.4323998  0.1991999  0.4996984    0.00000       Uiso       1.00
        N9          N  0.4870520  0.1032747  0.4839859    0.00000       Uiso       1.00
       N10          N  0.3781677  0.9064586  0.5027064    0.00000       Uiso       1.00
      C166          C  0.9992994  0.4871997  0.4998984    0.00000       Uiso       1.00
      C167          C  0.9726315  0.4601212  0.5048958    0.00000       Uiso       1.00
      C168          C  0.9698318  0.4375554  0.3424418    0.00000       Uiso       1.00
      C169          C  0.9451729  0.4119850  0.3394120    0.00000       Uiso       1.00
      C170          C  0.9220954  0.4083611  0.4985429    0.00000       Uiso       1.00
      C171          C  0.9246889  0.4306133  0.6641066    0.00000       Uiso       1.00
      C172          C  0.9495610  0.4556969  0.6692642    0.00000       Uiso       1.00
      C173          C  0.0241381  0.4837190  0.4956072    0.00000       Uiso       1.00
      C174          C  0.0240880  0.4623998  0.6582327    0.00000       Uiso       1.00
      C175          C  0.0467027  0.4580511  0.6595850    0.00000       Uiso       1.00
      C176          C  0.0706200  0.4756264  0.5017535    0.00000       Uiso       1.00
      C177          C  0.0709342  0.4969141  0.3375037    0.00000       Uiso       1.00
      C178          C  0.0479326  0.5006056  0.3328677    0.00000       Uiso       1.00
      C179          C  0.8938281  0.3600170  0.5520990    0.00000       Uiso       1.00
      C180          C  0.8671575  0.3342287  0.5149702    0.00000       Uiso       1.00
      C181          C  0.8619596  0.3101615  0.6632534    0.00000       Uiso       1.00
      C182          C  0.8354871  0.2864780  0.6563084    0.00000       Uiso       1.00
      C183          C  0.8141180  0.2865706  0.4976756    0.00000       Uiso       1.00
      C184          C  0.8199262  0.3104355  0.3396041    0.00000       Uiso       1.00
      C185          C  0.8461919  0.3340140  0.3462637    0.00000       Uiso       1.00
      C186          C  0.7858359  0.2621810  0.4981959    0.00000       Uiso       1.00
      C187          C  0.1175177  0.4919158  0.5780401    0.00000       Uiso       1.00
      C188          C  0.1429338  0.4903121  0.5550259    0.00000       Uiso       1.00
      C189          C  0.1674970  0.5101697  0.6900810    0.00000       Uiso       1.00
      C190          C  0.1918199  0.5087627  0.6657286    0.00000       Uiso       1.00
      C191          C  0.1917806  0.4869855  0.5128819    0.00000       Uiso       1.00
      C192          C  0.1669949  0.4670686  0.3800918    0.00000       Uiso       1.00
      C193          C  0.1429542  0.4688511  0.3961147    0.00000       Uiso       1.00
      C194          C  0.2166902  0.4841713  0.5025023    0.00000       Uiso       1.00
      C195          C  0.2439606  0.5073569  0.5017256    0.00000       Uiso       1.00
      C196          C  0.2135095  0.4572011  0.5004402    0.00000       Uiso       1.00
      C197          C  0.2670473  0.5037729  0.4979366    0.00000       Uiso       1.00
      C198          C  0.7818501  0.2350042  0.5004549    0.00000       Uiso       1.00
      H111          H  0.9517995  0.4730997  0.8134974    0.00000       Uiso       1.00
      H112          H  0.9878995  0.4406998  0.2032994    0.00000       Uiso       1.00
      H113          H  0.9428995  0.3949998  0.1918994    0.00000       Uiso       1.00
      H114          H  0.9068995  0.4274998  0.8055974    0.00000       Uiso       1.00
      H115          H  0.0054000  0.4489998  0.7989975    0.00000       Uiso       1.00
      H116          H  0.0465000  0.4416998  0.8024974    0.00000       Uiso       1.00
      H117          H  0.0891000  0.5098997  0.1945994    0.00000       Uiso       1.00
      H118          H  0.0480000  0.5170997  0.1908994    0.00000       Uiso       1.00
      H119          H  0.9113995  0.3586998  0.6594979    0.00000       Uiso       1.00
      H120          H  0.8788995  0.3111998  0.8086975    0.00000       Uiso       1.00
      H121          H  0.8311995  0.2685999  0.7961975    0.00000       Uiso       1.00
      H122          H  0.8037996  0.3103998  0.1956994    0.00000       Uiso       1.00
      H123          H  0.8516995  0.3534998  0.2154993    0.00000       Uiso       1.00
      H124          H  0.1191999  0.5115997  0.6737978    0.00000       Uiso       1.00
      H125          H  0.1664999  0.5263997  0.8345974    0.00000       Uiso       1.00
      H126          H  0.2102999  0.5237997  0.7899975    0.00000       Uiso       1.00
      H127          H  0.1667999  0.4505998  0.2445992    0.00000       Uiso       1.00
      H128          H  0.1230999  0.4540997  0.2788991    0.00000       Uiso       1.00
      H129          H  0.2458999  0.5280997  0.5019984    0.00000       Uiso       1.00
      H130          H  0.1916999  0.4386998  0.5046984    0.00000       Uiso       1.00
      H131          H  0.7655996  0.2872998  0.4983984    0.00000       Uiso       1.00
      H132          H  0.8007995  0.2331999  0.4996984    0.00000       Uiso       1.00
       N11          N  0.8967247  0.3837773  0.4839859    0.00000       Uiso       1.00
       N12          N  0.0935409  0.4717086  0.5027064    0.00000       Uiso       1.00
