data_DTP-APyrDI-COF
_audit_creation_date              0000-00-00
_audit_creation_method            'LanYouShi'
_symmetry_space_group_name_H-M    'P1'
_cell_length_a                    51.7697983
_cell_length_b                    51.7697983
_cell_length_c                    3.5397000
_cell_angle_alpha                 90.0000000
_cell_angle_beta                  90.0000000
_cell_angle_gamma                 120.0000000
loop_
_atom_site_label
_atom_site_type_symbol
_atom_site_fract_x
_atom_site_fract_y
_atom_site_fract_z
_atom_site_U_iso_or_equiv
_atom_site_adp_type
_atom_site_occupancy
        C1          C  0.6943581  0.3332641  0.5000032    0.00000       Uiso       1.00
        C2          C  0.6943581  0.3610940  0.5000032    0.00000       Uiso       1.00
        C3          C  0.7224658  0.3882593  0.5000032    0.00000       Uiso       1.00
        C4          C  0.7224657  0.3342065  0.5000032    0.00000       Uiso       1.00
        C5          C  0.7492115  0.3879609  0.5000032    0.00000       Uiso       1.00
        C6          C  0.7492115  0.3612505  0.5000032    0.00000       Uiso       1.00
        C1          C  0.6667354  0.3610940  0.5000032    0.00000       Uiso       1.00
        C2          C  0.6389054  0.3332641  0.5000032    0.00000       Uiso       1.00
        C3          C  0.6117401  0.3342065  0.5000032    0.00000       Uiso       1.00
        C4          C  0.6657929  0.3882593  0.5000032    0.00000       Uiso       1.00
        C5          C  0.6120384  0.3612505  0.5000032    0.00000       Uiso       1.00
        C6          C  0.6387488  0.3879609  0.5000032    0.00000       Uiso       1.00
        C1          C  0.6389053  0.3056413  0.5000032    0.00000       Uiso       1.00
        C2          C  0.6667354  0.3056413  0.5000032    0.00000       Uiso       1.00
        C3          C  0.6657929  0.2775337  0.5000032    0.00000       Uiso       1.00
        C4          C  0.6117401  0.2775337  0.5000032    0.00000       Uiso       1.00
        C5          C  0.6387488  0.2507879  0.5000032    0.00000       Uiso       1.00
        C6          C  0.6120384  0.2507879  0.5000032    0.00000       Uiso       1.00
        C1          C  0.3056414  0.6667354  0.5000032    0.00000       Uiso       1.00
        C2          C  0.3056414  0.6389054  0.5000032    0.00000       Uiso       1.00
        C3          C  0.2775337  0.6117401  0.5000032    0.00000       Uiso       1.00
        C4          C  0.2775337  0.6657929  0.5000032    0.00000       Uiso       1.00
        C5          C  0.2507879  0.6120384  0.5000032    0.00000       Uiso       1.00
        C6          C  0.2507879  0.6387488  0.5000032    0.00000       Uiso       1.00
        C1          C  0.3332641  0.6389054  0.5000032    0.00000       Uiso       1.00
        C2          C  0.3610940  0.6667354  0.5000032    0.00000       Uiso       1.00
        C3          C  0.3882592  0.6657929  0.5000032    0.00000       Uiso       1.00
        C4          C  0.3342065  0.6117401  0.5000032    0.00000       Uiso       1.00
        C5          C  0.3879609  0.6387488  0.5000032    0.00000       Uiso       1.00
        C6          C  0.3612506  0.6120384  0.5000032    0.00000       Uiso       1.00
        C1          C  0.3610940  0.6943581  0.5000032    0.00000       Uiso       1.00
        C2          C  0.3332641  0.6943581  0.5000032    0.00000       Uiso       1.00
        C3          C  0.3342065  0.7224657  0.5000032    0.00000       Uiso       1.00
        C4          C  0.3882592  0.7224657  0.5000032    0.00000       Uiso       1.00
        C5          C  0.3612505  0.7492115  0.5000032    0.00000       Uiso       1.00
        C6          C  0.3879609  0.7492115  0.5000032    0.00000       Uiso       1.00
        O1          O  0.7772171  0.3658319  0.5000032    0.00000       Uiso       1.00
        O1          O  0.6341675  0.4113852  0.5000032    0.00000       Uiso       1.00
        O1          O  0.5886142  0.2227823  0.5000032    0.00000       Uiso       1.00
        O1          O  0.2227823  0.6341675  0.5000032    0.00000       Uiso       1.00
        O1          O  0.3658319  0.5886142  0.5000032    0.00000       Uiso       1.00
        O1          O  0.4113852  0.7772171  0.5000032    0.00000       Uiso       1.00
        O1          O  0.3658319  0.7772171  0.5000032    0.00000       Uiso       1.00
        O1          O  0.4113852  0.6341675  0.5000032    0.00000       Uiso       1.00
        O1          O  0.2227823  0.5886142  0.5000032    0.00000       Uiso       1.00
        O1          O  0.6341675  0.2227823  0.5000032    0.00000       Uiso       1.00
        O1          O  0.5886142  0.3658319  0.5000032    0.00000       Uiso       1.00
        O1          O  0.7772171  0.4113852  0.5000032    0.00000       Uiso       1.00
        B1          B  0.7957264  0.3978632  0.5000032    0.00000       Uiso       1.00
        B1          B  0.6021361  0.3978632  0.5000032    0.00000       Uiso       1.00
        B1          B  0.6021361  0.2042729  0.5000032    0.00000       Uiso       1.00
        B1          B  0.2042730  0.6021362  0.5000032    0.00000       Uiso       1.00
        B1          B  0.3978632  0.6021362  0.5000032    0.00000       Uiso       1.00
        B1          B  0.3978632  0.7957264  0.5000032    0.00000       Uiso       1.00
        H1          H  0.7248678  0.4089393  0.5000032    0.00000       Uiso       1.00
        H2          H  0.5910600  0.3159285  0.5000032    0.00000       Uiso       1.00
        H3          H  0.6840709  0.2751316  0.5000032    0.00000       Uiso       1.00
        H4          H  0.5910601  0.2751316  0.5000032    0.00000       Uiso       1.00
        H5          H  0.6840708  0.4089393  0.5000032    0.00000       Uiso       1.00
        H6          H  0.7248678  0.3159285  0.5000032    0.00000       Uiso       1.00
        H1          H  0.2751316  0.5910600  0.5000032    0.00000       Uiso       1.00
        H2          H  0.4089393  0.6840708  0.5000032    0.00000       Uiso       1.00
        H3          H  0.3159285  0.7248678  0.5000032    0.00000       Uiso       1.00
        H4          H  0.4089393  0.7248678  0.5000032    0.00000       Uiso       1.00
        H5          H  0.3159285  0.5910600  0.5000032    0.00000       Uiso       1.00
        H6          H  0.2751316  0.6840708  0.5000032    0.00000       Uiso       1.00
        C1          C  0.0267821  0.5267664  0.5000032    0.00000       Uiso       1.00
        C2          C  0.4732330  0.5000151  0.5000032    0.00000       Uiso       1.00
        C3          C  0.4999843  0.9732172  0.5000032    0.00000       Uiso       1.00
        C4          C  0.9732172  0.4732330  0.5000032    0.00000       Uiso       1.00
        C5          C  0.5267664  0.4999843  0.5000032    0.00000       Uiso       1.00
        C6          C  0.5000151  0.0267821  0.5000032    0.00000       Uiso       1.00
        C7          C  0.5267664  0.0267821  0.5000032    0.00000       Uiso       1.00
        C8          C  0.5000151  0.4732330  0.5000032    0.00000       Uiso       1.00
        C9          C  0.9732173  0.4999843  0.5000032    0.00000       Uiso       1.00
       C10          C  0.4732329  0.9732172  0.5000032    0.00000       Uiso       1.00
       C11          C  0.4999843  0.5267664  0.5000032    0.00000       Uiso       1.00
       C12          C  0.0267821  0.5000151  0.5000032    0.00000       Uiso       1.00
       C13          C  0.0565631  0.5490313  0.5000032    0.00000       Uiso       1.00
       C14          C  0.4509680  0.5075311  0.5000032    0.00000       Uiso       1.00
       C15          C  0.4924683  0.9434363  0.5000032    0.00000       Uiso       1.00
       C16          C  0.9434363  0.4509680  0.5000032    0.00000       Uiso       1.00
       C17          C  0.5490313  0.4924682  0.5000032    0.00000       Uiso       1.00
       C18          C  0.5075311  0.0565631  0.5000032    0.00000       Uiso       1.00
       C19          C  0.5490313  0.0565631  0.5000032    0.00000       Uiso       1.00
       C20          C  0.5075311  0.4509680  0.5000032    0.00000       Uiso       1.00
       C21          C  0.9434363  0.4924682  0.5000032    0.00000       Uiso       1.00
       C22          C  0.4509680  0.9434363  0.5000032    0.00000       Uiso       1.00
       C23          C  0.4924683  0.5490313  0.5000032    0.00000       Uiso       1.00
       C24          C  0.0565631  0.5075311  0.5000032    0.00000       Uiso       1.00
       C25          C  0.1062508  0.5531251  0.5000032    0.00000       Uiso       1.00
       C26          C  0.4468743  0.5531251  0.5000032    0.00000       Uiso       1.00
       C27          C  0.4468743  0.8937485  0.5000032    0.00000       Uiso       1.00
       C28          C  0.8937485  0.4468743  0.5000032    0.00000       Uiso       1.00
       C29          C  0.5531251  0.4468743  0.5000032    0.00000       Uiso       1.00
       C30          C  0.5531251  0.1062508  0.5000032    0.00000       Uiso       1.00
       C31          C  0.1234776  0.5848720  0.5000032    0.00000       Uiso       1.00
       C32          C  0.4151274  0.5386050  0.5000032    0.00000       Uiso       1.00
       C33          C  0.4613943  0.8765217  0.5000032    0.00000       Uiso       1.00
       C34          C  0.8765216  0.4151273  0.5000032    0.00000       Uiso       1.00
       C35          C  0.5848720  0.4613943  0.5000032    0.00000       Uiso       1.00
       C36          C  0.5386050  0.1234777  0.5000032    0.00000       Uiso       1.00
       C37          C  0.5848720  0.1234777  0.5000032    0.00000       Uiso       1.00
       C38          C  0.5386050  0.4151273  0.5000032    0.00000       Uiso       1.00
       C39          C  0.8765218  0.4613943  0.5000032    0.00000       Uiso       1.00
       C40          C  0.4151274  0.8765217  0.5000032    0.00000       Uiso       1.00
       C41          C  0.4613943  0.5848720  0.5000032    0.00000       Uiso       1.00
       C42          C  0.1234777  0.5386050  0.5000032    0.00000       Uiso       1.00
       C43          C  0.1549037  0.6007775  0.5000032    0.00000       Uiso       1.00
       C44          C  0.3992219  0.5541255  0.5000032    0.00000       Uiso       1.00
       C45          C  0.4458738  0.8450958  0.5000032    0.00000       Uiso       1.00
       C46          C  0.8450958  0.3992219  0.5000032    0.00000       Uiso       1.00
       C47          C  0.6007775  0.4458738  0.5000032    0.00000       Uiso       1.00
       C48          C  0.5541255  0.1549037  0.5000032    0.00000       Uiso       1.00
       C49          C  0.6007775  0.1549037  0.5000032    0.00000       Uiso       1.00
       C50          C  0.5541255  0.3992219  0.5000032    0.00000       Uiso       1.00
       C51          C  0.8450957  0.4458738  0.5000032    0.00000       Uiso       1.00
       C52          C  0.3992219  0.8450958  0.5000032    0.00000       Uiso       1.00
       C53          C  0.4458738  0.6007775  0.5000032    0.00000       Uiso       1.00
       C54          C  0.1549037  0.5541255  0.5000032    0.00000       Uiso       1.00
        H1          H  0.1135643  0.5975454  0.5000032    0.00000       Uiso       1.00
        H2          H  0.4024540  0.5160182  0.5000032    0.00000       Uiso       1.00
        H3          H  0.4839811  0.8864352  0.5000032    0.00000       Uiso       1.00
        H4          H  0.8864352  0.4024540  0.5000032    0.00000       Uiso       1.00
        H5          H  0.5975454  0.4839811  0.5000032    0.00000       Uiso       1.00
        H6          H  0.5160183  0.1135643  0.5000032    0.00000       Uiso       1.00
        H7          H  0.5975453  0.1135643  0.5000032    0.00000       Uiso       1.00
        H8          H  0.5160183  0.4024540  0.5000032    0.00000       Uiso       1.00
        H9          H  0.8864351  0.4839811  0.5000032    0.00000       Uiso       1.00
       H10          H  0.4024540  0.8864352  0.5000032    0.00000       Uiso       1.00
       H11          H  0.4839811  0.5975454  0.5000032    0.00000       Uiso       1.00
       H12          H  0.1135643  0.5160182  0.5000032    0.00000       Uiso       1.00
       H13          H  0.1660107  0.6236841  0.5000032    0.00000       Uiso       1.00
       H14          H  0.3763153  0.5423260  0.5000032    0.00000       Uiso       1.00
       H15          H  0.4576734  0.8339887  0.5000032    0.00000       Uiso       1.00
       H16          H  0.8339886  0.3763153  0.5000032    0.00000       Uiso       1.00
       H17          H  0.6236841  0.4576734  0.5000032    0.00000       Uiso       1.00
       H18          H  0.5423260  0.1660107  0.5000032    0.00000       Uiso       1.00
       H19          H  0.6236841  0.1660107  0.5000032    0.00000       Uiso       1.00
       H20          H  0.5423260  0.3763153  0.5000032    0.00000       Uiso       1.00
       H21          H  0.8339886  0.4576734  0.5000032    0.00000       Uiso       1.00
       H22          H  0.3763153  0.8339887  0.5000032    0.00000       Uiso       1.00
       H23          H  0.4576734  0.6236841  0.5000032    0.00000       Uiso       1.00
       H24          H  0.1660107  0.5423260  0.5000032    0.00000       Uiso       1.00
       C55          C  0.8289722  0.4144861  0.5000032    0.00000       Uiso       1.00
       C56          C  0.5855133  0.4144861  0.5000032    0.00000       Uiso       1.00
       C57          C  0.5855133  0.1710272  0.5000032    0.00000       Uiso       1.00
       C58          C  0.1710272  0.5855133  0.5000032    0.00000       Uiso       1.00
       C59          C  0.4144861  0.5855133  0.5000032    0.00000       Uiso       1.00
       C60          C  0.4144861  0.8289721  0.5000032    0.00000       Uiso       1.00
       C61          C  0.5277432  0.5277432  0.5000032    0.00000       Uiso       1.00
       H25          H  0.5475612  0.5475612  0.5000032    0.00000       Uiso       1.00
       C62          C  0.4722562  0.0000000  0.5000032    0.00000       Uiso       1.00
       H26          H  0.4524381  0.0000000  0.5000032    0.00000       Uiso       1.00
       C63          C -0.0000000  0.4722562  0.5000032    0.00000       Uiso       1.00
       H27          H  0.0000000  0.4524381  0.5000032    0.00000       Uiso       1.00
       C64          C  0.4722562  0.4722562  0.5000032    0.00000       Uiso       1.00
       H28          H  0.4524381  0.4524381  0.5000032    0.00000       Uiso       1.00
       C65          C  0.5277432  0.0000000  0.5000032    0.00000       Uiso       1.00
       H29          H  0.5475612  0.0000000  0.5000032    0.00000       Uiso       1.00
       C66          C  0.0000000  0.5277432  0.5000032    0.00000       Uiso       1.00
       H30          H -0.0000000  0.5475612  0.5000032    0.00000       Uiso       1.00
        O1          O  0.0631064  0.5757167  0.5000032    0.00000       Uiso       1.00
        O2          O  0.0631064  0.4873891  0.5000032    0.00000       Uiso       1.00
        O1          O  0.4242826  0.4873891  0.5000032    0.00000       Uiso       1.00
        O2          O  0.5126103  0.5757167  0.5000032    0.00000       Uiso       1.00
        O1          O  0.5126103  0.9368929  0.5000032    0.00000       Uiso       1.00
        O2          O  0.4242826  0.9368929  0.5000032    0.00000       Uiso       1.00
        O1          O  0.9368929  0.4242827  0.5000032    0.00000       Uiso       1.00
        O2          O  0.9368930  0.5126103  0.5000032    0.00000       Uiso       1.00
        O1          O  0.5757167  0.5126103  0.5000032    0.00000       Uiso       1.00
        O2          O  0.4873891  0.4242827  0.5000032    0.00000       Uiso       1.00
        O1          O  0.4873891  0.0631064  0.5000032    0.00000       Uiso       1.00
        O2          O  0.5757167  0.0631064  0.5000032    0.00000       Uiso       1.00
        N1          N  0.0753491  0.5376742  0.5000032    0.00000       Uiso       1.00
        N1          N  0.4623251  0.5376742  0.5000032    0.00000       Uiso       1.00
        N1          N  0.4623252  0.9246503  0.5000032    0.00000       Uiso       1.00
        N1          N  0.9246503  0.4623252  0.5000032    0.00000       Uiso       1.00
        N1          N  0.5376742  0.4623252  0.5000032    0.00000       Uiso       1.00
        N1          N  0.5376742  0.0753491  0.5000032    0.00000       Uiso       1.00
