data_FL-COF-1
_audit_creation_date              0000-00-00
_audit_creation_method            'LanYouShi'
_symmetry_space_group_name_H-M    'P1'
_cell_length_a                    29.1429005
_cell_length_b                    29.1429005
_cell_length_c                    3.5090001
_cell_angle_alpha                 90.0000000
_cell_angle_beta                  90.0000000
_cell_angle_gamma                 120.0000000
loop_
_atom_site_label
_atom_site_type_symbol
_atom_site_fract_x
_atom_site_fract_y
_atom_site_fract_z
_atom_site_U_iso_or_equiv
_atom_site_adp_type
_atom_site_occupancy
        N1          N  0.3701448  0.5605965  0.0000000    0.00000       Uiso       1.00
        N2          N  0.5734177  0.3866301  0.0000000    0.00000       Uiso       1.00
        N3          N  0.4394053  0.8095501  0.0000000    0.00000       Uiso       1.00
        N4          N  0.6133716  0.1867876  0.0000000    0.00000       Uiso       1.00
        N5          N  0.1904516  0.6298569  0.0000000    0.00000       Uiso       1.00
        N6          N  0.8132141  0.4265840  0.0000000    0.00000       Uiso       1.00
        C1          C  0.3067716  0.6111525  0.0000000    0.00000       Uiso       1.00
        C2          C  0.6705296  0.3832406  0.0000000    0.00000       Uiso       1.00
        C3          C  0.3888493  0.6956208  0.0000000    0.00000       Uiso       1.00
        C4          C  0.6167611  0.2872890  0.0000000    0.00000       Uiso       1.00
        C5          C  0.3043808  0.6932301  0.0000000    0.00000       Uiso       1.00
        C6          C  0.7127127  0.3294721  0.0000000    0.00000       Uiso       1.00
        C7          C  0.3930298  0.6140077  0.0000000    0.00000       Uiso       1.00
        C8          C  0.5727403  0.3398862  0.0000000    0.00000       Uiso       1.00
        C9          C  0.3859940  0.7790239  0.0000000    0.00000       Uiso       1.00
       C10          C  0.6601155  0.2328541  0.0000000    0.00000       Uiso       1.00
       C11          C  0.2209778  0.6069719  0.0000000    0.00000       Uiso       1.00
       C12          C  0.7671476  0.4272614  0.0000000    0.00000       Uiso       1.00
       C13          C  0.3914751  0.5286064  0.0000000    0.00000       Uiso       1.00
       C14          C  0.5336042  0.3978910  0.0000000    0.00000       Uiso       1.00
       C15          C  0.4713953  0.8628704  0.0000000    0.00000       Uiso       1.00
       C16          C  0.6021107  0.1357132  0.0000000    0.00000       Uiso       1.00
       C17          C  0.1371313  0.6085266  0.0000000    0.00000       Uiso       1.00
       C18          C  0.8642885  0.4663975  0.0000000    0.00000       Uiso       1.00
       C19          C  0.4466660  0.5468490  0.0000000    0.00000       Uiso       1.00
       C20          C  0.4787563  0.3593162  0.0000000    0.00000       Uiso       1.00
       C21          C  0.4531527  0.8998187  0.0000000    0.00000       Uiso       1.00
       C22          C  0.6406855  0.1194401  0.0000000    0.00000       Uiso       1.00
       C23          C  0.1001830  0.5533357  0.0000000    0.00000       Uiso       1.00
       C24          C  0.8805616  0.5212454  0.0000000    0.00000       Uiso       1.00
       C25          C  0.4637973  0.5095394  0.0000000    0.00000       Uiso       1.00
       C26          C  0.4397374  0.3744566  0.0000000    0.00000       Uiso       1.00
       C27          C  0.4904622  0.9542596  0.0000000    0.00000       Uiso       1.00
       C28          C  0.6255451  0.0652808  0.0000000    0.00000       Uiso       1.00
       C29          C  0.0457422  0.5362044  0.0000000    0.00000       Uiso       1.00
       C30          C  0.9347209  0.5602643  0.0000000    0.00000       Uiso       1.00
       C31          C  0.4274822  0.4551888  0.0000000    0.00000       Uiso       1.00
       C32          C  0.4561977  0.4287281  0.0000000    0.00000       Uiso       1.00
       C33          C  0.5448129  0.9722951  0.0000000    0.00000       Uiso       1.00
       C34          C  0.5712736  0.0274696  0.0000000    0.00000       Uiso       1.00
       C35          C  0.0277066  0.5725195  0.0000000    0.00000       Uiso       1.00
       C36          C  0.9725321  0.5438040  0.0000000    0.00000       Uiso       1.00
       C37          C  0.3726890  0.4362197  0.0000000    0.00000       Uiso       1.00
       C38          C  0.5099770  0.4669821  0.0000000    0.00000       Uiso       1.00
       C39          C  0.5637820  0.9364709  0.0000000    0.00000       Uiso       1.00
       C40          C  0.5330196  0.0429949  0.0000000    0.00000       Uiso       1.00
       C41          C  0.0635307  0.6273127  0.0000000    0.00000       Uiso       1.00
       C42          C  0.9570068  0.4900247  0.0000000    0.00000       Uiso       1.00
       C43          C  0.3550978  0.4733524  0.0000000    0.00000       Uiso       1.00
       C44          C  0.5491413  0.4523104  0.0000000    0.00000       Uiso       1.00
       C45          C  0.5266493  0.8817471  0.0000000    0.00000       Uiso       1.00
       C46          C  0.5476913  0.0968309  0.0000000    0.00000       Uiso       1.00
       C47          C  0.1182546  0.6449039  0.0000000    0.00000       Uiso       1.00
       C48          C  0.9031708  0.4508604  0.0000000    0.00000       Uiso       1.00
       C49          C  0.3628360  0.6396448  0.0000000    0.00000       Uiso       1.00
       C50          C  0.6197684  0.3372391  0.0000000    0.00000       Uiso       1.00
       C51          C  0.3603569  0.7231929  0.0000000    0.00000       Uiso       1.00
       C52          C  0.6627626  0.2825294  0.0000000    0.00000       Uiso       1.00
       C53          C  0.2768088  0.6371657  0.0000000    0.00000       Uiso       1.00
       C54          C  0.7174724  0.3802333  0.0000000    0.00000       Uiso       1.00
        H1          H  0.4334444  0.6365730  0.0000000    0.00000       Uiso       1.00
        H2          H  0.5371191  0.3053778  0.0000000    0.00000       Uiso       1.00
        H3          H  0.3634287  0.7968731  0.0000000    0.00000       Uiso       1.00
        H4          H  0.6946239  0.2317413  0.0000000    0.00000       Uiso       1.00
        H5          H  0.2031286  0.5665573  0.0000000    0.00000       Uiso       1.00
        H6          H  0.7682604  0.4628826  0.0000000    0.00000       Uiso       1.00
        H7          H  0.6734868  0.4197702  0.0000000    0.00000       Uiso       1.00
        H8          H  0.2872440  0.5705806  0.0000000    0.00000       Uiso       1.00
       C55          C  0.4829223  0.9978577  0.0000000    0.00000       Uiso       1.00
        H9          H  0.4741550  0.5862702  0.0000000    0.00000       Uiso       1.00
       H10          H  0.3460983  0.3964809  0.0000000    0.00000       Uiso       1.00
       H11          H  0.3151830  0.4596314  0.0000000    0.00000       Uiso       1.00
       H12          H  0.4664902  0.3198225  0.0000000    0.00000       Uiso       1.00
       H13          H  0.4003987  0.3464770  0.0000000    0.00000       Uiso       1.00
       H14          H  0.5883274  0.4809596  0.0000000    0.00000       Uiso       1.00
       H15          H  0.4473933  0.9969068  0.0000000    0.00000       Uiso       1.00
       H16          H  0.5802315  0.2537166  0.0000000    0.00000       Uiso       1.00
       H17          H  0.4294211  0.7166651  0.0000000    0.00000       Uiso       1.00
       C56          C  0.0021440  0.4850662  0.0000000    0.00000       Uiso       1.00
       H18          H  0.4137315  0.8878866  0.0000000    0.00000       Uiso       1.00
       H19          H  0.6035208  0.9496190  0.0000000    0.00000       Uiso       1.00
       H20          H  0.5403703  0.8555533  0.0000000    0.00000       Uiso       1.00
       H21          H  0.6801792  0.1466678  0.0000000    0.00000       Uiso       1.00
       H22          H  0.6535247  0.0539217  0.0000000    0.00000       Uiso       1.00
       H23          H  0.5190421  0.1073678  0.0000000    0.00000       Uiso       1.00
       H24          H  0.0030949  0.4504882  0.0000000    0.00000       Uiso       1.00
       H25          H  0.7462851  0.3265149  0.0000000    0.00000       Uiso       1.00
       H26          H  0.2833366  0.7127576  0.0000000    0.00000       Uiso       1.00
       C57          C  0.5149355  0.5170794  0.0000000    0.00000       Uiso       1.00
       H27          H  0.1121151  0.5258467  0.0000000    0.00000       Uiso       1.00
       H28          H  0.0503827  0.6539034  0.0000000    0.00000       Uiso       1.00
       H29          H  0.1444484  0.6848187  0.0000000    0.00000       Uiso       1.00
       H30          H  0.8533339  0.5335115  0.0000000    0.00000       Uiso       1.00
       H31          H  0.9460800  0.5996030  0.0000000    0.00000       Uiso       1.00
       H32          H  0.8926339  0.4116743  0.0000000    0.00000       Uiso       1.00
       H33          H  0.5495136  0.5526084  0.0000000    0.00000       Uiso       1.00
