data_H2P-COF
_audit_creation_date              0000-00-00
_audit_creation_method            'LanYouShi'
_symmetry_space_group_name_H-M    'P1'
_cell_length_a                    39.3512993
_cell_length_b                    33.3956985
_cell_length_c                    6.7414999
_cell_angle_alpha                 90.0000000
_cell_angle_beta                  90.0000000
_cell_angle_gamma                 90.0000000
loop_
_atom_site_label
_atom_site_type_symbol
_atom_site_fract_x
_atom_site_fract_y
_atom_site_fract_z
_atom_site_U_iso_or_equiv
_atom_site_adp_type
_atom_site_occupancy
        C1          C  0.7409394  0.2904892  0.5000015    0.00000       Uiso       1.00
        C2          C  0.2409394  0.7904897  0.5000015    0.00000       Uiso       1.00
        C3          C  0.2590606  0.7095118  0.5000015    0.00000       Uiso       1.00
        C4          C  0.7590605  0.2095113  0.5000015    0.00000       Uiso       1.00
        C5          C  0.2590606  0.2904892  0.5000015    0.00000       Uiso       1.00
        C6          C  0.7590605  0.7904897  0.5000015    0.00000       Uiso       1.00
        C7          C  0.7409394  0.7095118  0.5000015    0.00000       Uiso       1.00
        C8          C  0.2409394  0.2095113  0.5000015    0.00000       Uiso       1.00
        C9          C  0.7842855  0.2390248  0.5000015    0.00000       Uiso       1.00
       C10          C  0.2842855  0.7390254  0.5000015    0.00000       Uiso       1.00
       C11          C  0.2157145  0.7609762  0.5000015    0.00000       Uiso       1.00
       C12          C  0.7157145  0.2609757  0.5000015    0.00000       Uiso       1.00
       C13          C  0.2157145  0.2390248  0.5000015    0.00000       Uiso       1.00
       C14          C  0.7157145  0.7390254  0.5000015    0.00000       Uiso       1.00
       C15          C  0.7842855  0.7609762  0.5000015    0.00000       Uiso       1.00
       C16          C  0.2842855  0.2609757  0.5000015    0.00000       Uiso       1.00
       C17          C  0.6983798  0.1885446  0.5000015    0.00000       Uiso       1.00
       C18          C  0.1983798  0.6885452  0.5000015    0.00000       Uiso       1.00
       C19          C  0.3016202  0.8114563  0.5000015    0.00000       Uiso       1.00
       C20          C  0.8016201  0.3114559  0.5000015    0.00000       Uiso       1.00
       C21          C  0.3016202  0.1885446  0.5000015    0.00000       Uiso       1.00
       C22          C  0.8016201  0.6885452  0.5000015    0.00000       Uiso       1.00
       C23          C  0.6983798  0.8114563  0.5000015    0.00000       Uiso       1.00
       C24          C  0.1983798  0.3114559  0.5000015    0.00000       Uiso       1.00
       C25          C  0.7754179  0.2797913  0.5000015    0.00000       Uiso       1.00
       C26          C  0.2754179  0.7797918  0.5000015    0.00000       Uiso       1.00
       C27          C  0.2245821  0.7202097  0.5000015    0.00000       Uiso       1.00
       C28          C  0.7245820  0.2202092  0.5000015    0.00000       Uiso       1.00
       C29          C  0.2245821  0.2797913  0.5000015    0.00000       Uiso       1.00
       C30          C  0.7245820  0.7797918  0.5000015    0.00000       Uiso       1.00
       C31          C  0.7754179  0.7202097  0.5000015    0.00000       Uiso       1.00
       C32          C  0.2754179  0.2202092  0.5000015    0.00000       Uiso       1.00
        N1          N  0.8337367  0.3025805  0.5000015    0.00000       Uiso       1.00
        N2          N  0.3337367  0.8025810  0.5000015    0.00000       Uiso       1.00
        N3          N  0.1662633  0.6974205  0.5000015    0.00000       Uiso       1.00
        N4          N  0.6662633  0.1974200  0.5000015    0.00000       Uiso       1.00
        N5          N  0.1662633  0.3025805  0.5000015    0.00000       Uiso       1.00
        N6          N  0.6662633  0.8025810  0.5000015    0.00000       Uiso       1.00
        N7          N  0.8337367  0.6974205  0.5000015    0.00000       Uiso       1.00
        N8          N  0.3337367  0.1974200  0.5000015    0.00000       Uiso       1.00
        N9          N  0.5583956  0.0000000  0.5000015    0.00000       Uiso       1.00
       N10          N  0.0583956  0.5000005  0.5000015    0.00000       Uiso       1.00
       N11          N  0.4416044  0.0000000  0.5000015    0.00000       Uiso       1.00
       N12          N  0.9416044  0.5000005  0.5000015    0.00000       Uiso       1.00
        H1          H  0.5340072  0.0000000  0.5000015    0.00000       Uiso       1.00
        H2          H  0.0340072  0.5000005  0.5000015    0.00000       Uiso       1.00
        H3          H  0.4659928  0.0000000  0.5000015    0.00000       Uiso       1.00
        H4          H  0.9659927  0.5000005  0.5000015    0.00000       Uiso       1.00
       C33          C  0.5769669  0.9663911  0.5000015    0.00000       Uiso       1.00
       C34          C  0.0769669  0.4663907  0.5000015    0.00000       Uiso       1.00
       C35          C  0.4230331  0.0336098  0.5000015    0.00000       Uiso       1.00
       C36          C  0.9230331  0.5336103  0.5000015    0.00000       Uiso       1.00
       C37          C  0.4230331  0.9663911  0.5000015    0.00000       Uiso       1.00
       C38          C  0.9230331  0.4663907  0.5000015    0.00000       Uiso       1.00
       C39          C  0.5769669  0.0336098  0.5000015    0.00000       Uiso       1.00
       C40          C  0.0769669  0.5336103  0.5000015    0.00000       Uiso       1.00
       C41          C  0.6106565  0.9789604  0.5000015    0.00000       Uiso       1.00
       C42          C  0.1106565  0.4789599  0.5000015    0.00000       Uiso       1.00
       C43          C  0.3893434  0.0210406  0.5000015    0.00000       Uiso       1.00
       C44          C  0.8893434  0.5210411  0.5000015    0.00000       Uiso       1.00
       C45          C  0.3893434  0.9789604  0.5000015    0.00000       Uiso       1.00
       C46          C  0.8893434  0.4789599  0.5000015    0.00000       Uiso       1.00
       C47          C  0.6106565  0.0210406  0.5000015    0.00000       Uiso       1.00
       C48          C  0.1106565  0.5210411  0.5000015    0.00000       Uiso       1.00
        H5          H  0.6328601  0.9598803  0.5000015    0.00000       Uiso       1.00
        H6          H  0.1328601  0.4598798  0.5000015    0.00000       Uiso       1.00
        H7          H  0.3671399  0.0401207  0.5000015    0.00000       Uiso       1.00
        H8          H  0.8671399  0.5401212  0.5000015    0.00000       Uiso       1.00
        H9          H  0.3671399  0.9598803  0.5000015    0.00000       Uiso       1.00
       H10          H  0.8671399  0.4598798  0.5000015    0.00000       Uiso       1.00
       H11          H  0.6328601  0.0401207  0.5000015    0.00000       Uiso       1.00
       H12          H  0.1328601  0.5401212  0.5000015    0.00000       Uiso       1.00
       N13          N  0.0000000  0.4332725  0.5000015    0.00000       Uiso       1.00
       N14          N  0.5000000  0.9332730  0.5000015    0.00000       Uiso       1.00
       N15          N  0.0000000  0.5667286  0.5000015    0.00000       Uiso       1.00
       N16          N  0.5000000  0.0667280  0.5000015    0.00000       Uiso       1.00
       C49          C  0.0299100  0.4097445  0.5000015    0.00000       Uiso       1.00
       C50          C  0.5299100  0.9097450  0.5000015    0.00000       Uiso       1.00
       C51          C  0.9700900  0.5902566  0.5000015    0.00000       Uiso       1.00
       C52          C  0.4700900  0.0902561  0.5000015    0.00000       Uiso       1.00
       C53          C  0.9700900  0.4097445  0.5000015    0.00000       Uiso       1.00
       C54          C  0.4700900  0.9097450  0.5000015    0.00000       Uiso       1.00
       C55          C  0.0299100  0.5902566  0.5000015    0.00000       Uiso       1.00
       C56          C  0.5299100  0.0902561  0.5000015    0.00000       Uiso       1.00
       C57          C  0.0171554  0.3681837  0.5000015    0.00000       Uiso       1.00
       C58          C  0.5171554  0.8681842  0.5000015    0.00000       Uiso       1.00
       C59          C  0.9828445  0.6318173  0.5000015    0.00000       Uiso       1.00
       C60          C  0.4828446  0.1318168  0.5000015    0.00000       Uiso       1.00
       C61          C  0.9828445  0.3681837  0.5000015    0.00000       Uiso       1.00
       C62          C  0.4828446  0.8681842  0.5000015    0.00000       Uiso       1.00
       C63          C  0.0171554  0.6318173  0.5000015    0.00000       Uiso       1.00
       C64          C  0.5171554  0.1318168  0.5000015    0.00000       Uiso       1.00
       H13          H  0.0327250  0.3414851  0.5000015    0.00000       Uiso       1.00
       H14          H  0.5327250  0.8414856  0.5000015    0.00000       Uiso       1.00
       H15          H  0.9672750  0.6585159  0.5000015    0.00000       Uiso       1.00
       H16          H  0.4672750  0.1585154  0.5000015    0.00000       Uiso       1.00
       H17          H  0.9672750  0.3414851  0.5000015    0.00000       Uiso       1.00
       H18          H  0.4672750  0.8414856  0.5000015    0.00000       Uiso       1.00
       H19          H  0.0327250  0.6585159  0.5000015    0.00000       Uiso       1.00
       H20          H  0.5327250  0.1585154  0.5000015    0.00000       Uiso       1.00
       C65          C  0.5634336  0.9229829  0.5000015    0.00000       Uiso       1.00
       C66          C  0.0634337  0.4229824  0.5000015    0.00000       Uiso       1.00
       C67          C  0.4365664  0.0770181  0.5000015    0.00000       Uiso       1.00
       C68          C  0.9365664  0.5770187  0.5000015    0.00000       Uiso       1.00
       C69          C  0.4365664  0.9229829  0.5000015    0.00000       Uiso       1.00
       C70          C  0.9365664  0.4229824  0.5000015    0.00000       Uiso       1.00
       C71          C  0.5634336  0.0770181  0.5000015    0.00000       Uiso       1.00
       C72          C  0.0634337  0.5770187  0.5000015    0.00000       Uiso       1.00
       C73          C  0.5899130  0.8917755  0.5000015    0.00000       Uiso       1.00
       C74          C  0.0899129  0.3917750  0.5000015    0.00000       Uiso       1.00
       C75          C  0.4100871  0.1082255  0.5000015    0.00000       Uiso       1.00
       C76          C  0.9100870  0.6082260  0.5000015    0.00000       Uiso       1.00
       C77          C  0.4100871  0.8917755  0.5000015    0.00000       Uiso       1.00
       C78          C  0.9100870  0.3917750  0.5000015    0.00000       Uiso       1.00
       C79          C  0.5899130  0.1082255  0.5000015    0.00000       Uiso       1.00
       C80          C  0.0899129  0.6082260  0.5000015    0.00000       Uiso       1.00
       C81          C  0.1026116  0.3769568  0.6798844    0.00000       Uiso       1.00
       C82          C  0.6026116  0.8769572  0.6798844    0.00000       Uiso       1.00
       C83          C  0.8973883  0.6230443  0.6798844    0.00000       Uiso       1.00
       C84          C  0.3973883  0.1230437  0.6798844    0.00000       Uiso       1.00
       C85          C  0.8973883  0.3769568  0.3201185    0.00000       Uiso       1.00
       C86          C  0.3973883  0.8769572  0.3201185    0.00000       Uiso       1.00
       C87          C  0.1026116  0.6230443  0.3201185    0.00000       Uiso       1.00
       C88          C  0.6026116  0.1230437  0.3201185    0.00000       Uiso       1.00
       C89          C  0.8973883  0.6230443  0.3201185    0.00000       Uiso       1.00
       C90          C  0.3973883  0.1230437  0.3201185    0.00000       Uiso       1.00
       C91          C  0.1026116  0.3769568  0.3201185    0.00000       Uiso       1.00
       C92          C  0.6026116  0.8769572  0.3201185    0.00000       Uiso       1.00
       C93          C  0.1026116  0.6230443  0.6798844    0.00000       Uiso       1.00
       C94          C  0.6026116  0.1230437  0.6798844    0.00000       Uiso       1.00
       C95          C  0.8973883  0.3769568  0.6798844    0.00000       Uiso       1.00
       C96          C  0.3973883  0.8769572  0.6798844    0.00000       Uiso       1.00
       H21          H  0.5929029  0.8882717  0.8192831    0.00000       Uiso       1.00
       H22          H  0.0929029  0.3882713  0.8192831    0.00000       Uiso       1.00
       H23          H  0.4070971  0.1117293  0.8192831    0.00000       Uiso       1.00
       H24          H  0.9070971  0.6117298  0.8192831    0.00000       Uiso       1.00
       H25          H  0.4070971  0.8882717  0.1807200    0.00000       Uiso       1.00
       H26          H  0.9070971  0.3882713  0.1807200    0.00000       Uiso       1.00
       H27          H  0.5929029  0.1117293  0.1807200    0.00000       Uiso       1.00
       H28          H  0.0929029  0.6117298  0.1807200    0.00000       Uiso       1.00
       H29          H  0.4070971  0.1117293  0.1807200    0.00000       Uiso       1.00
       H30          H  0.9070971  0.6117298  0.1807200    0.00000       Uiso       1.00
       H31          H  0.5929029  0.8882717  0.1807200    0.00000       Uiso       1.00
       H32          H  0.0929029  0.3882713  0.1807200    0.00000       Uiso       1.00
       H33          H  0.5929029  0.1117293  0.8192831    0.00000       Uiso       1.00
       H34          H  0.0929029  0.6117298  0.8192831    0.00000       Uiso       1.00
       H35          H  0.4070971  0.8882717  0.8192831    0.00000       Uiso       1.00
       H36          H  0.9070971  0.3882713  0.8192831    0.00000       Uiso       1.00
       C97          C  0.6278485  0.8474317  0.6795628    0.00000       Uiso       1.00
       C98          C  0.1278485  0.3474312  0.6795628    0.00000       Uiso       1.00
       C99          C  0.3721515  0.1525694  0.6795628    0.00000       Uiso       1.00
      C100          C  0.8721515  0.6525698  0.6795628    0.00000       Uiso       1.00
      C101          C  0.3721515  0.8474317  0.3204402    0.00000       Uiso       1.00
      C102          C  0.8721515  0.3474312  0.3204402    0.00000       Uiso       1.00
      C103          C  0.6278485  0.1525694  0.3204402    0.00000       Uiso       1.00
      C104          C  0.1278485  0.6525698  0.3204402    0.00000       Uiso       1.00
      C105          C  0.3721515  0.1525694  0.3204402    0.00000       Uiso       1.00
      C106          C  0.8721515  0.6525698  0.3204402    0.00000       Uiso       1.00
      C107          C  0.6278485  0.8474317  0.3204402    0.00000       Uiso       1.00
      C108          C  0.1278485  0.3474312  0.3204402    0.00000       Uiso       1.00
      C109          C  0.6278485  0.1525694  0.6795628    0.00000       Uiso       1.00
      C110          C  0.1278485  0.6525698  0.6795628    0.00000       Uiso       1.00
      C111          C  0.3721515  0.8474317  0.6795628    0.00000       Uiso       1.00
      C112          C  0.8721515  0.3474312  0.6795628    0.00000       Uiso       1.00
       H37          H  0.6376554  0.8358271  0.8178656    0.00000       Uiso       1.00
       H38          H  0.1376554  0.3358266  0.8178656    0.00000       Uiso       1.00
       H39          H  0.3623446  0.1641739  0.8178656    0.00000       Uiso       1.00
       H40          H  0.8623446  0.6641744  0.8178656    0.00000       Uiso       1.00
       H41          H  0.3623446  0.8358271  0.1821375    0.00000       Uiso       1.00
       H42          H  0.8623446  0.3358266  0.1821375    0.00000       Uiso       1.00
       H43          H  0.6376554  0.1641739  0.1821375    0.00000       Uiso       1.00
       H44          H  0.1376554  0.6641744  0.1821375    0.00000       Uiso       1.00
       H45          H  0.3623446  0.1641739  0.1821375    0.00000       Uiso       1.00
       H46          H  0.8623446  0.6641744  0.1821375    0.00000       Uiso       1.00
       H47          H  0.6376554  0.8358271  0.1821375    0.00000       Uiso       1.00
       H48          H  0.1376554  0.3358266  0.1821375    0.00000       Uiso       1.00
       H49          H  0.6376554  0.1641739  0.8178656    0.00000       Uiso       1.00
       H50          H  0.1376554  0.6641744  0.8178656    0.00000       Uiso       1.00
       H51          H  0.3623446  0.8358271  0.8178656    0.00000       Uiso       1.00
       H52          H  0.8623446  0.3358266  0.8178656    0.00000       Uiso       1.00
      C113          C  0.6405809  0.8327689  0.5000015    0.00000       Uiso       1.00
      C114          C  0.1405809  0.3327684  0.5000015    0.00000       Uiso       1.00
      C115          C  0.3594191  0.1672322  0.5000015    0.00000       Uiso       1.00
      C116          C  0.8594190  0.6672327  0.5000015    0.00000       Uiso       1.00
      C117          C  0.3594191  0.8327689  0.5000015    0.00000       Uiso       1.00
      C118          C  0.8594190  0.3327684  0.5000015    0.00000       Uiso       1.00
      C119          C  0.6405809  0.1672322  0.5000015    0.00000       Uiso       1.00
      C120          C  0.1405809  0.6672327  0.5000015    0.00000       Uiso       1.00
       H53          H  0.7335244  0.3217188  0.5000015    0.00000       Uiso       1.00
       H54          H  0.8107412  0.2300795  0.5000015    0.00000       Uiso       1.00
       H55          H  0.7063332  0.1574240  0.5000015    0.00000       Uiso       1.00
       H56          H  0.2335244  0.8217193  0.5000015    0.00000       Uiso       1.00
       H57          H  0.3107412  0.7300800  0.5000015    0.00000       Uiso       1.00
       H58          H  0.2063332  0.6574245  0.5000015    0.00000       Uiso       1.00
       H59          H  0.2664756  0.6782822  0.5000015    0.00000       Uiso       1.00
       H60          H  0.1892588  0.7699215  0.5000015    0.00000       Uiso       1.00
       H61          H  0.2936668  0.8425770  0.5000015    0.00000       Uiso       1.00
       H62          H  0.7664756  0.1782817  0.5000015    0.00000       Uiso       1.00
       H63          H  0.6892588  0.2699210  0.5000015    0.00000       Uiso       1.00
       H64          H  0.7936667  0.3425765  0.5000015    0.00000       Uiso       1.00
       H65          H  0.2664756  0.3217188  0.5000015    0.00000       Uiso       1.00
       H66          H  0.1892588  0.2300795  0.5000015    0.00000       Uiso       1.00
       H67          H  0.2936668  0.1574240  0.5000015    0.00000       Uiso       1.00
       H68          H  0.7664756  0.8217193  0.5000015    0.00000       Uiso       1.00
       H69          H  0.6892588  0.7300800  0.5000015    0.00000       Uiso       1.00
       H70          H  0.7936667  0.6574245  0.5000015    0.00000       Uiso       1.00
       H71          H  0.7335244  0.6782822  0.5000015    0.00000       Uiso       1.00
       H72          H  0.8107412  0.7699215  0.5000015    0.00000       Uiso       1.00
       H73          H  0.7063332  0.8425770  0.5000015    0.00000       Uiso       1.00
       H74          H  0.2335244  0.1782817  0.5000015    0.00000       Uiso       1.00
       H75          H  0.3107412  0.2699210  0.5000015    0.00000       Uiso       1.00
       H76          H  0.2063332  0.3425765  0.5000015    0.00000       Uiso       1.00
       H77          H  0.0000000  0.4621450  0.5000015    0.00000       Uiso       1.00
       H78          H  0.5000000  0.9621454  0.5000015    0.00000       Uiso       1.00
       H79          H  0.0000000  0.5378560  0.5000015    0.00000       Uiso       1.00
       H80          H  0.5000000  0.0378555  0.5000015    0.00000       Uiso       1.00
