data_HAT-COF
_audit_creation_date              0000-00-00
_audit_creation_method            'LanYouShi'
_symmetry_space_group_name_H-M    'P1'
_cell_length_a                    25.5835991
_cell_length_b                    25.5835991
_cell_length_c                    4.2164001
_cell_angle_alpha                 90.0000000
_cell_angle_beta                  90.0000000
_cell_angle_gamma                 120.0000000
loop_
_atom_site_label
_atom_site_type_symbol
_atom_site_fract_x
_atom_site_fract_y
_atom_site_fract_z
_atom_site_U_iso_or_equiv
_atom_site_adp_type
_atom_site_occupancy
        C1          C  0.3895118  0.6687533 -0.0267551    0.00000       Uiso       1.00
        C2          C  0.3312465  0.7207584 -0.0267551    0.00000       Uiso       1.00
        C3          C  0.2792413  0.6104879 -0.0267551    0.00000       Uiso       1.00
        C4          C  0.3873837  0.7228631 -0.0247601    0.00000       Uiso       1.00
        C5          C  0.2771367  0.6645205 -0.0247601    0.00000       Uiso       1.00
        C6          C  0.3354793  0.6126161 -0.0247601    0.00000       Uiso       1.00
        N1          N  0.3350737  0.5594450 -0.0149377    0.00000       Uiso       1.00
        N2          N  0.4405548  0.7756286 -0.0149377    0.00000       Uiso       1.00
        N3          N  0.2243711  0.6649261 -0.0149377    0.00000       Uiso       1.00
        N4          N  0.2286232  0.5554084 -0.0269102    0.00000       Uiso       1.00
        N5          N  0.4445914  0.6732147 -0.0269102    0.00000       Uiso       1.00
        N6          N  0.3267850  0.7713766 -0.0269102    0.00000       Uiso       1.00
        C7          C  0.7761245  0.6647351 -0.0317535    0.00000       Uiso       1.00
        C8          C  0.3352647  0.1113893 -0.0317535    0.00000       Uiso       1.00
        C9          C  0.8886105  0.2238753 -0.0317535    0.00000       Uiso       1.00
       C10          C  0.8526978  0.6342988 -0.0985815    0.00000       Uiso       1.00
       C11          C  0.3657009  0.2183988 -0.0985815    0.00000       Uiso       1.00
       C12          C  0.7816010  0.1473020 -0.0985815    0.00000       Uiso       1.00
       C13          C  0.8194042  0.7157937  0.1393837    0.00000       Uiso       1.00
       C14          C  0.2842061  0.1036104  0.1393837    0.00000       Uiso       1.00
       C15          C  0.8963894  0.1805956  0.1393837    0.00000       Uiso       1.00
       C16          C  0.7936001  0.6237094 -0.1462310    0.00000       Uiso       1.00
       C17          C  0.3762904  0.1698905 -0.1462310    0.00000       Uiso       1.00
       C18          C  0.8301092  0.2063997 -0.1462310    0.00000       Uiso       1.00
        H1          H  0.8641869  0.6041749 -0.1878471    0.00000       Uiso       1.00
        H2          H  0.3958249  0.2600119 -0.1878471    0.00000       Uiso       1.00
        H3          H  0.7399879  0.1358128 -0.1878471    0.00000       Uiso       1.00
        H4          H  0.8084331  0.7460653  0.2318006    0.00000       Uiso       1.00
        H5          H  0.2539344  0.0623677  0.2318006    0.00000       Uiso       1.00
        H6          H  0.9376321  0.1915666  0.2318006    0.00000       Uiso       1.00
        H7          H  0.7635692  0.5859589 -0.2687690    0.00000       Uiso       1.00
        H8          H  0.4140409  0.1776101 -0.2687690    0.00000       Uiso       1.00
        H9          H  0.8223897  0.2364306 -0.2687690    0.00000       Uiso       1.00
       C19          C  0.3134660  0.2097176  0.0625370    0.00000       Uiso       1.00
       C20          C  0.7902821  0.1037482  0.0625370    0.00000       Uiso       1.00
       C21          C  0.8962516  0.6865337  0.0625370    0.00000       Uiso       1.00
       C22          C  0.2733255  0.1517540  0.1846634    0.00000       Uiso       1.00
       C23          C  0.8482458  0.1215714  0.1846634    0.00000       Uiso       1.00
       C24          C  0.8784283  0.7266742  0.1846634    0.00000       Uiso       1.00
       H10          H  0.9083446  0.7644691  0.3075148    0.00000       Uiso       1.00
       H11          H  0.2355307  0.1438754  0.3075148    0.00000       Uiso       1.00
       H12          H  0.8561243  0.0916551  0.3075148    0.00000       Uiso       1.00
       C25          C  0.2846647  0.5035466 -0.0077166    0.00000       Uiso       1.00
       C26          C  0.4964532  0.7811180 -0.0077166    0.00000       Uiso       1.00
       C27          C  0.2188818  0.7153351 -0.0077166    0.00000       Uiso       1.00
       C28          C  0.2273825  0.5014504 -0.0204021    0.00000       Uiso       1.00
       C29          C  0.4985494  0.7259319 -0.0204021    0.00000       Uiso       1.00
       C30          C  0.2740678  0.7726173 -0.0204021    0.00000       Uiso       1.00
       C31          C  0.2974612  0.4554400  0.0080772    0.00000       Uiso       1.00
       C32          C  0.5445598  0.8420211  0.0080772    0.00000       Uiso       1.00
       C33          C  0.1579787  0.7025387  0.0080772    0.00000       Uiso       1.00
       C34          C  0.3488836  0.4622096  0.1748309    0.00000       Uiso       1.00
       C35          C  0.5377901  0.8866739  0.1748309    0.00000       Uiso       1.00
       C36          C  0.1133259  0.6511161  0.1748309    0.00000       Uiso       1.00
       C37          C  0.3632186  0.4156460  0.1861922    0.00000       Uiso       1.00
       C38          C  0.5843538  0.9475725  0.1861922    0.00000       Uiso       1.00
       C39          C  0.0524272  0.6367812  0.1861922    0.00000       Uiso       1.00
       C40          C  0.3257707  0.3599469  0.0372011    0.00000       Uiso       1.00
       C41          C  0.6400529  0.9658237  0.0372011    0.00000       Uiso       1.00
       C42          C  0.0341761  0.6742291  0.0372011    0.00000       Uiso       1.00
       C43          C  0.2749617  0.3525530 -0.1314529    0.00000       Uiso       1.00
       C44          C  0.6474468  0.9224085 -0.1314529    0.00000       Uiso       1.00
       C45          C  0.0775912  0.7250381 -0.1314529    0.00000       Uiso       1.00
       C46          C  0.2617278  0.3995462 -0.1462211    0.00000       Uiso       1.00
       C47          C  0.6004536  0.8621815 -0.1462211    0.00000       Uiso       1.00
       C48          C  0.1378182  0.7382720 -0.1462211    0.00000       Uiso       1.00
       H13          H  0.3766397  0.5016510  0.2922176    0.00000       Uiso       1.00
       H14          H  0.4983487  0.8749885  0.2922176    0.00000       Uiso       1.00
       H15          H  0.1250113  0.6233601  0.2922176    0.00000       Uiso       1.00
       H16          H  0.4005793  0.4220032  0.3073111    0.00000       Uiso       1.00
       H17          H  0.5779966  0.9785760  0.3073111    0.00000       Uiso       1.00
       H18          H  0.0214238  0.5994204  0.3073111    0.00000       Uiso       1.00
       H19          H  0.2477368  0.3130661 -0.2483162    0.00000       Uiso       1.00
       H20          H  0.6869336  0.9346706 -0.2483162    0.00000       Uiso       1.00
       H21          H  0.0653292  0.7522629 -0.2483162    0.00000       Uiso       1.00
       H22          H  0.2251104  0.3920361 -0.2720174    0.00000       Uiso       1.00
       H23          H  0.6079637  0.8330742 -0.2720174    0.00000       Uiso       1.00
       H24          H  0.1669256  0.7748894 -0.2720174    0.00000       Uiso       1.00
       C49          C  0.1679823  0.4506959 -0.0166660    0.00000       Uiso       1.00
       C50          C  0.5493039  0.7172863 -0.0166660    0.00000       Uiso       1.00
       C51          C  0.2827135  0.8320175 -0.0166660    0.00000       Uiso       1.00
       C52          C  0.1528139  0.3988027  0.1659372    0.00000       Uiso       1.00
       C53          C  0.6011970  0.7540110  0.1659372    0.00000       Uiso       1.00
       C54          C  0.2459887  0.8471858  0.1659372    0.00000       Uiso       1.00
       C55          C  0.0940750  0.3488905  0.1737343    0.00000       Uiso       1.00
       C56          C  0.6511093  0.7451844  0.1737343    0.00000       Uiso       1.00
       C57          C  0.2548155  0.9059248  0.1737343    0.00000       Uiso       1.00
       C58          C  0.0473386  0.3495275  0.0023613    0.00000       Uiso       1.00
       C59          C  0.6504722  0.6978109  0.0023613    0.00000       Uiso       1.00
       C60          C  0.3021888  0.9526611  0.0023613    0.00000       Uiso       1.00
       C61          C  0.0605907  0.4011456 -0.1778783    0.00000       Uiso       1.00
       C62          C  0.5988542  0.6594450 -0.1778783    0.00000       Uiso       1.00
       C63          C  0.3405548  0.9394091 -0.1778783    0.00000       Uiso       1.00
       C64          C  0.1200440  0.4507101 -0.1876338    0.00000       Uiso       1.00
       C65          C  0.5492896  0.6693337 -0.1876338    0.00000       Uiso       1.00
       C66          C  0.3306661  0.8799558 -0.1876338    0.00000       Uiso       1.00
       H25          H  0.1847277  0.3968496  0.2969816    0.00000       Uiso       1.00
       H26          H  0.6031501  0.7878780  0.2969816    0.00000       Uiso       1.00
       H27          H  0.2121219  0.8152722  0.2969816    0.00000       Uiso       1.00
       H28          H  0.0853202  0.3120433  0.3079631    0.00000       Uiso       1.00
       H29          H  0.6879565  0.7732768  0.3079631    0.00000       Uiso       1.00
       H30          H  0.2267229  0.9146795  0.3079631    0.00000       Uiso       1.00
       H31          H  0.0274397  0.4027253 -0.3047765    0.00000       Uiso       1.00
       H32          H  0.5972744  0.6247143 -0.3047765    0.00000       Uiso       1.00
       H33          H  0.3752855  0.9725600 -0.3047765    0.00000       Uiso       1.00
       H34          H  0.1282950  0.4872352 -0.3239343    0.00000       Uiso       1.00
       H35          H  0.5127645  0.6410597 -0.3239343    0.00000       Uiso       1.00
       H36          H  0.3589401  0.8717047 -0.3239343    0.00000       Uiso       1.00
        N7          N  0.3394397  0.3152425  0.0539505    0.00000       Uiso       1.00
        N8          N  0.6847574  0.0241971  0.0539505    0.00000       Uiso       1.00
        N9          N  0.9758026  0.6605600  0.0539505    0.00000       Uiso       1.00
       C67          C  0.2990448  0.2558246  0.0937155    0.00000       Uiso       1.00
       C68          C  0.7441751  0.0432199  0.0937155    0.00000       Uiso       1.00
       C69          C  0.9567798  0.7009550  0.0937155    0.00000       Uiso       1.00
       H37          H  0.2552919  0.2435601  0.1476229    0.00000       Uiso       1.00
       H38          H  0.7564397  0.0117317  0.1476229    0.00000       Uiso       1.00
       H39          H  0.9882681  0.7447079  0.1476229    0.00000       Uiso       1.00
       N10          N  0.9928977  0.2988998  0.0265190    0.00000       Uiso       1.00
       N11          N  0.7011000  0.6939978  0.0265190    0.00000       Uiso       1.00
       N12          N  0.3060020  0.0071021  0.0265190    0.00000       Uiso       1.00
       C70          C  0.9375981  0.2822665 -0.0914080    0.00000       Uiso       1.00
       C71          C  0.7177333  0.6553314 -0.0914080    0.00000       Uiso       1.00
       C72          C  0.3446683  0.0624016 -0.0914080    0.00000       Uiso       1.00
       H40          H  0.9313501  0.3118527 -0.2270601    0.00000       Uiso       1.00
       H41          H  0.6881471  0.6194972 -0.2270601    0.00000       Uiso       1.00
       H42          H  0.3805026  0.0686497 -0.2270601    0.00000       Uiso       1.00
