data_4PE-TT
_audit_creation_date              0000-00-00
_audit_creation_method            'LanYouShi'
_symmetry_space_group_name_H-M    'P1'
_cell_length_a                    41.1994019
_cell_length_b                    41.1994019
_cell_length_c                    4.5827999
_cell_angle_alpha                 90.0000000
_cell_angle_beta                  90.0000000
_cell_angle_gamma                 120.0000000
loop_
_atom_site_label
_atom_site_type_symbol
_atom_site_fract_x
_atom_site_fract_y
_atom_site_fract_z
_atom_site_U_iso_or_equiv
_atom_site_adp_type
_atom_site_occupancy
        C1          C  0.4828299  0.4840499  0.5102934    0.00000       Uiso       1.00
        C2          C  0.4476899  0.4846299  0.5222734    0.00000       Uiso       1.00
        C3          C  0.4186299  0.4614099  0.3339622    0.00000       Uiso       1.00
        C4          C  0.3859899  0.4625699  0.3262621    0.00000       Uiso       1.00
        C5          C  0.3813799  0.4868498  0.5120834    0.00000       Uiso       1.00
        C6          C  0.4098399  0.5091999  0.7090846    0.00000       Uiso       1.00
        C7          C  0.4423999  0.5079699  0.7126447    0.00000       Uiso       1.00
        H1          H  0.4653999  0.5262098  0.8574056    0.00000       Uiso       1.00
        C8          C  0.4776399  0.4463399  0.5026633    0.00000       Uiso       1.00
        C9          C  0.4488399  0.4176199  0.6647744    0.00000       Uiso       1.00
       C10          C  0.4435299  0.3819499  0.6640043    0.00000       Uiso       1.00
       C11          C  0.4670199  0.3739599  0.4975133    0.00000       Uiso       1.00
       C12          C  0.4948499  0.4021399  0.3247421    0.00000       Uiso       1.00
       C13          C  0.5001599  0.4375599  0.3314922    0.00000       Uiso       1.00
        N1          N  0.3500999  0.4902599  0.5077233    0.00000       Uiso       1.00
       C14          C  0.3177899  0.4620999  0.4533430    0.00000       Uiso       1.00
        N2          N  0.4616899  0.3384399  0.5013433    0.00000       Uiso       1.00
       C15          C  0.4897498  0.3336699  0.4586430    0.00000       Uiso       1.00
       C16          C  0.4848499  0.2974099  0.4456029    0.00000       Uiso       1.00
        H2          H  0.4227899  0.4430099  0.1853012    0.00000       Uiso       1.00
        H3          H  0.3644099  0.4463499  0.1634511    0.00000       Uiso       1.00
        H4          H  0.4050699  0.5273398  0.8555856    0.00000       Uiso       1.00
        H5          H  0.4303399  0.4238599  0.7939852    0.00000       Uiso       1.00
        H6          H  0.4214699  0.3593799  0.7919652    0.00000       Uiso       1.00
        H7          H  0.5111098  0.3952299  0.1736911    0.00000       Uiso       1.00
        H8          H  0.5222399  0.4596099  0.2008013    0.00000       Uiso       1.00
        H9          H  0.3131899  0.4334299  0.4271728    0.00000       Uiso       1.00
       H10          H  0.5187498  0.3573899  0.4424629    0.00000       Uiso       1.00
       C17          C  0.5119498  0.2872699  0.4434329    0.00000       Uiso       1.00
       C18          C  0.4956499  0.2484999  0.4438529    0.00000       Uiso       1.00
       C19          C  0.4563899  0.2297699  0.4421529    0.00000       Uiso       1.00
        S1          S  0.4398299  0.2601799  0.4451329    0.00000       Uiso       1.00
       C20          C  0.2863499  0.4670399  0.4427429    0.00000       Uiso       1.00
       C21          C  0.2490699  0.4400799  0.4388129    0.00000       Uiso       1.00
        S2          S  0.2941699  0.5120898  0.4501230    0.00000       Uiso       1.00
       H11          H  0.5417299  0.3077499  0.4450029    0.00000       Uiso       1.00
       H12          H  0.2393499  0.4102299  0.4371628    0.00000       Uiso       1.00
       C22          C  0.5159498  0.9987797  0.5102934    0.00000       Uiso       1.00
       C23          C  0.5153698  0.9630597  0.5222734    0.00000       Uiso       1.00
       C24          C  0.5385898  0.9572197  0.3339622    0.00000       Uiso       1.00
       C25          C  0.5374298  0.9234197  0.3262621    0.00000       Uiso       1.00
       C26          C  0.5131499  0.8945298  0.5120834    0.00000       Uiso       1.00
       C27          C  0.4907999  0.9006398  0.7090846    0.00000       Uiso       1.00
       C28          C  0.4920298  0.9344297  0.7126447    0.00000       Uiso       1.00
       H13          H  0.4737899  0.9391898  0.8574056    0.00000       Uiso       1.00
       C29          C  0.5536599  0.0313000  0.5026633    0.00000       Uiso       1.00
       C30          C  0.5823798  0.0312200  0.6647744    0.00000       Uiso       1.00
       C31          C  0.6180498  0.0615800  0.6640043    0.00000       Uiso       1.00
       C32          C  0.6260398  0.0930600  0.4975133    0.00000       Uiso       1.00
       C33          C  0.5978599  0.0927100  0.3247421    0.00000       Uiso       1.00
       C34          C  0.5624399  0.0626000  0.3314922    0.00000       Uiso       1.00
        N3          N  0.5097398  0.8598397  0.5077233    0.00000       Uiso       1.00
       C35          C  0.5378999  0.8556898  0.4533430    0.00000       Uiso       1.00
        N4          N  0.6615598  0.1232500  0.5013433    0.00000       Uiso       1.00
       C36          C  0.6663298  0.1560800  0.4586430    0.00000       Uiso       1.00
       C37          C  0.7025898  0.1874399  0.4456029    0.00000       Uiso       1.00
       H14          H  0.5569898  0.9797797  0.1853012    0.00000       Uiso       1.00
       H15          H  0.5536498  0.9180598  0.1634511    0.00000       Uiso       1.00
       H16          H  0.4726599  0.8777298  0.8555856    0.00000       Uiso       1.00
       H17          H  0.5761398  0.0064800  0.7939852    0.00000       Uiso       1.00
       H18          H  0.6406198  0.0620900  0.7919652    0.00000       Uiso       1.00
       H19          H  0.6047698  0.1158800  0.1736911    0.00000       Uiso       1.00
       H20          H  0.5403898  0.0626300  0.2008013    0.00000       Uiso       1.00
       H21          H  0.5665699  0.8797597  0.4271728    0.00000       Uiso       1.00
       H22          H  0.6426098  0.1613600  0.4424629    0.00000       Uiso       1.00
       C38          C  0.7127298  0.2246799  0.4434329    0.00000       Uiso       1.00
       C39          C  0.7514998  0.2471499  0.4438529    0.00000       Uiso       1.00
       C40          C  0.7702298  0.2266199  0.4421529    0.00000       Uiso       1.00
        S3          S  0.7398198  0.1796499  0.4451329    0.00000       Uiso       1.00
       C41          C  0.5329599  0.8193098  0.4427429    0.00000       Uiso       1.00
       C42          C  0.5599198  0.8089898  0.4388129    0.00000       Uiso       1.00
        S4          S  0.4879099  0.7820798  0.4501230    0.00000       Uiso       1.00
       H23          H  0.6922498  0.2339799  0.4450029    0.00000       Uiso       1.00
       H24          H  0.5897698  0.8291197  0.4371628    0.00000       Uiso       1.00
       C43          C  0.0012200  0.5171698  0.5102934    0.00000       Uiso       1.00
       C44          C  0.0369400  0.5523098  0.5222734    0.00000       Uiso       1.00
       C45          C  0.0427800  0.5813698  0.3339622    0.00000       Uiso       1.00
       C46          C  0.0765800  0.6140098  0.3262621    0.00000       Uiso       1.00
       C47          C  0.1054700  0.6186198  0.5120834    0.00000       Uiso       1.00
       C48          C  0.0993600  0.5901598  0.7090846    0.00000       Uiso       1.00
       C49          C  0.0655700  0.5575998  0.7126447    0.00000       Uiso       1.00
       H25          H  0.0608100  0.5345998  0.8574056    0.00000       Uiso       1.00
       C50          C  0.9686998  0.5223598  0.5026633    0.00000       Uiso       1.00
       C51          C  0.9687797  0.5511599  0.6647744    0.00000       Uiso       1.00
       C52          C  0.9384197  0.5564699  0.6640043    0.00000       Uiso       1.00
       C53          C  0.9069397  0.5329798  0.4975133    0.00000       Uiso       1.00
       C54          C  0.9072897  0.5051498  0.3247421    0.00000       Uiso       1.00
       C55          C  0.9373997  0.4998398  0.3314922    0.00000       Uiso       1.00
        N5          N  0.1401600  0.6498998  0.5077233    0.00000       Uiso       1.00
       C56          C  0.1443100  0.6822098  0.4533430    0.00000       Uiso       1.00
        N6          N  0.8767498  0.5383098  0.5013433    0.00000       Uiso       1.00
       C57          C  0.8439198  0.5102499  0.4586430    0.00000       Uiso       1.00
       C58          C  0.8125598  0.5151499  0.4456029    0.00000       Uiso       1.00
       H26          H  0.0202200  0.5772098  0.1853012    0.00000       Uiso       1.00
       H27          H  0.0819400  0.6355898  0.1634511    0.00000       Uiso       1.00
       H28          H  0.1222700  0.5949298  0.8555856    0.00000       Uiso       1.00
       H29          H  0.9935197  0.5696598  0.7939852    0.00000       Uiso       1.00
       H30          H  0.9379097  0.5785298  0.7919652    0.00000       Uiso       1.00
       H31          H  0.8841197  0.4888898  0.1736911    0.00000       Uiso       1.00
       H32          H  0.9373698  0.4777599  0.2008013    0.00000       Uiso       1.00
       H33          H  0.1202400  0.6868098  0.4271728    0.00000       Uiso       1.00
       H34          H  0.8386397  0.4812498  0.4424629    0.00000       Uiso       1.00
       C59          C  0.7753198  0.4880499  0.4434329    0.00000       Uiso       1.00
       C60          C  0.7528498  0.5043498  0.4438529    0.00000       Uiso       1.00
       C61          C  0.7733797  0.5436099  0.4421529    0.00000       Uiso       1.00
        S5          S  0.8203498  0.5601698  0.4451329    0.00000       Uiso       1.00
       C62          C  0.1806899  0.7136498  0.4427429    0.00000       Uiso       1.00
       C63          C  0.1910099  0.7509298  0.4388129    0.00000       Uiso       1.00
        S6          S  0.2179199  0.7058298  0.4501230    0.00000       Uiso       1.00
       H35          H  0.7660198  0.4582699  0.4450029    0.00000       Uiso       1.00
       H36          H  0.1708799  0.7606498  0.4371628    0.00000       Uiso       1.00
       C64          C  0.5171698  0.5159498  0.5102934    0.00000       Uiso       1.00
       C65          C  0.5523099  0.5153698  0.5222734    0.00000       Uiso       1.00
       C66          C  0.5813698  0.5385898  0.3339622    0.00000       Uiso       1.00
       C67          C  0.6140098  0.5374298  0.3262621    0.00000       Uiso       1.00
       C68          C  0.6186198  0.5131499  0.5120834    0.00000       Uiso       1.00
       C69          C  0.5901598  0.4907999  0.7090846    0.00000       Uiso       1.00
       C70          C  0.5575998  0.4920299  0.7126447    0.00000       Uiso       1.00
       H37          H  0.5345998  0.4737899  0.8574056    0.00000       Uiso       1.00
       C71          C  0.5223598  0.5536599  0.5026633    0.00000       Uiso       1.00
       C72          C  0.5511599  0.5823798  0.6647744    0.00000       Uiso       1.00
       C73          C  0.5564699  0.6180498  0.6640043    0.00000       Uiso       1.00
       C74          C  0.5329798  0.6260398  0.4975133    0.00000       Uiso       1.00
       C75          C  0.5051498  0.5978598  0.3247421    0.00000       Uiso       1.00
       C76          C  0.4998399  0.5624399  0.3314922    0.00000       Uiso       1.00
        N7          N  0.6498998  0.5097399  0.5077233    0.00000       Uiso       1.00
       C77          C  0.6822098  0.5378998  0.4533430    0.00000       Uiso       1.00
        N8          N  0.5383099  0.6615598  0.5013433    0.00000       Uiso       1.00
       C78          C  0.5102499  0.6663298  0.4586430    0.00000       Uiso       1.00
       C79          C  0.5151498  0.7025898  0.4456029    0.00000       Uiso       1.00
       H38          H  0.5772098  0.5569898  0.1853012    0.00000       Uiso       1.00
       H39          H  0.6355898  0.5536498  0.1634511    0.00000       Uiso       1.00
       H40          H  0.5949298  0.4726599  0.8555856    0.00000       Uiso       1.00
       H41          H  0.5696598  0.5761398  0.7939852    0.00000       Uiso       1.00
       H42          H  0.5785298  0.6406198  0.7919652    0.00000       Uiso       1.00
       H43          H  0.4888899  0.6047698  0.1736911    0.00000       Uiso       1.00
       H44          H  0.4777599  0.5403899  0.2008013    0.00000       Uiso       1.00
       H45          H  0.6868098  0.5665698  0.4271728    0.00000       Uiso       1.00
       H46          H  0.4812499  0.6426098  0.4424629    0.00000       Uiso       1.00
       C80          C  0.4880499  0.7127298  0.4434329    0.00000       Uiso       1.00
       C81          C  0.5043499  0.7514998  0.4438529    0.00000       Uiso       1.00
       C82          C  0.5436099  0.7702298  0.4421529    0.00000       Uiso       1.00
        S7          S  0.5601698  0.7398198  0.4451329    0.00000       Uiso       1.00
       C83          C  0.7136498  0.5329599  0.4427429    0.00000       Uiso       1.00
       C84          C  0.7509298  0.5599198  0.4388129    0.00000       Uiso       1.00
        S8          S  0.7058298  0.4879099  0.4501230    0.00000       Uiso       1.00
       H47          H  0.4582699  0.6922498  0.4450029    0.00000       Uiso       1.00
       H48          H  0.7606498  0.5897698  0.4371628    0.00000       Uiso       1.00
       C85          C  0.4840499  0.0012200  0.5102934    0.00000       Uiso       1.00
       C86          C  0.4846298  0.0369400  0.5222734    0.00000       Uiso       1.00
       C87          C  0.4614099  0.0427800  0.3339622    0.00000       Uiso       1.00
       C88          C  0.4625699  0.0765800  0.3262621    0.00000       Uiso       1.00
       C89          C  0.4868498  0.1054700  0.5120834    0.00000       Uiso       1.00
       C90          C  0.5091999  0.0993600  0.7090846    0.00000       Uiso       1.00
       C91          C  0.5079699  0.0655700  0.7126447    0.00000       Uiso       1.00
       H49          H  0.5262098  0.0608100  0.8574056    0.00000       Uiso       1.00
       C92          C  0.4463399  0.9686997  0.5026633    0.00000       Uiso       1.00
       C93          C  0.4176199  0.9687797  0.6647744    0.00000       Uiso       1.00
       C94          C  0.3819499  0.9384198  0.6640043    0.00000       Uiso       1.00
       C95          C  0.3739599  0.9069397  0.4975133    0.00000       Uiso       1.00
       C96          C  0.4021399  0.9072897  0.3247421    0.00000       Uiso       1.00
       C97          C  0.4375599  0.9373997  0.3314922    0.00000       Uiso       1.00
        N9          N  0.4902599  0.1401600  0.5077233    0.00000       Uiso       1.00
       C98          C  0.4620999  0.1443100  0.4533430    0.00000       Uiso       1.00
       N10          N  0.3384399  0.8767497  0.5013433    0.00000       Uiso       1.00
       C99          C  0.3336699  0.8439198  0.4586430    0.00000       Uiso       1.00
      C100          C  0.2974099  0.8125598  0.4456029    0.00000       Uiso       1.00
       H50          H  0.4430099  0.0202200  0.1853012    0.00000       Uiso       1.00
       H51          H  0.4463499  0.0819400  0.1634511    0.00000       Uiso       1.00
       H52          H  0.5273398  0.1222700  0.8555856    0.00000       Uiso       1.00
       H53          H  0.4238599  0.9935197  0.7939852    0.00000       Uiso       1.00
       H54          H  0.3593799  0.9379097  0.7919652    0.00000       Uiso       1.00
       H55          H  0.3952299  0.8841197  0.1736911    0.00000       Uiso       1.00
       H56          H  0.4596099  0.9373698  0.2008013    0.00000       Uiso       1.00
       H57          H  0.4334299  0.1202400  0.4271728    0.00000       Uiso       1.00
       H58          H  0.3573899  0.8386398  0.4424629    0.00000       Uiso       1.00
      C101          C  0.2872699  0.7753198  0.4434329    0.00000       Uiso       1.00
      C102          C  0.2484999  0.7528498  0.4438529    0.00000       Uiso       1.00
      C103          C  0.2297699  0.7733798  0.4421529    0.00000       Uiso       1.00
        S9          S  0.2601799  0.8203498  0.4451329    0.00000       Uiso       1.00
      C104          C  0.4670399  0.1806899  0.4427429    0.00000       Uiso       1.00
      C105          C  0.4400799  0.1910100  0.4388129    0.00000       Uiso       1.00
       S10          S  0.5120898  0.2179199  0.4501230    0.00000       Uiso       1.00
       H59          H  0.3077499  0.7660198  0.4450029    0.00000       Uiso       1.00
       H60          H  0.4102299  0.1708799  0.4371628    0.00000       Uiso       1.00
      C106          C  0.9987797  0.4828298  0.5102934    0.00000       Uiso       1.00
      C107          C  0.9630597  0.4476899  0.5222734    0.00000       Uiso       1.00
      C108          C  0.9572197  0.4186299  0.3339622    0.00000       Uiso       1.00
      C109          C  0.9234198  0.3859899  0.3262621    0.00000       Uiso       1.00
      C110          C  0.8945297  0.3813799  0.5120834    0.00000       Uiso       1.00
      C111          C  0.9006398  0.4098399  0.7090846    0.00000       Uiso       1.00
      C112          C  0.9344298  0.4423999  0.7126447    0.00000       Uiso       1.00
       H61          H  0.9391897  0.4653999  0.8574056    0.00000       Uiso       1.00
      C113          C  0.0313000  0.4776399  0.5026633    0.00000       Uiso       1.00
      C114          C  0.0312200  0.4488399  0.6647744    0.00000       Uiso       1.00
      C115          C  0.0615800  0.4435299  0.6640043    0.00000       Uiso       1.00
      C116          C  0.0930600  0.4670199  0.4975133    0.00000       Uiso       1.00
      C117          C  0.0927100  0.4948499  0.3247421    0.00000       Uiso       1.00
      C118          C  0.0626000  0.5001599  0.3314922    0.00000       Uiso       1.00
       N11          N  0.8598397  0.3500999  0.5077233    0.00000       Uiso       1.00
      C119          C  0.8556898  0.3177899  0.4533430    0.00000       Uiso       1.00
       N12          N  0.1232500  0.4616899  0.5013433    0.00000       Uiso       1.00
      C120          C  0.1560799  0.4897498  0.4586430    0.00000       Uiso       1.00
      C121          C  0.1874399  0.4848498  0.4456029    0.00000       Uiso       1.00
       H62          H  0.9797797  0.4227899  0.1853012    0.00000       Uiso       1.00
       H63          H  0.9180597  0.3644099  0.1634511    0.00000       Uiso       1.00
       H64          H  0.8777297  0.4050699  0.8555856    0.00000       Uiso       1.00
       H65          H  0.0064800  0.4303399  0.7939852    0.00000       Uiso       1.00
       H66          H  0.0620900  0.4214699  0.7919652    0.00000       Uiso       1.00
       H67          H  0.1158800  0.5111099  0.1736911    0.00000       Uiso       1.00
       H68          H  0.0626300  0.5222398  0.2008013    0.00000       Uiso       1.00
       H69          H  0.8797597  0.3131899  0.4271728    0.00000       Uiso       1.00
       H70          H  0.1613600  0.5187498  0.4424629    0.00000       Uiso       1.00
      C122          C  0.2246799  0.5119498  0.4434329    0.00000       Uiso       1.00
      C123          C  0.2471499  0.4956498  0.4438529    0.00000       Uiso       1.00
      C124          C  0.2266199  0.4563899  0.4421529    0.00000       Uiso       1.00
       S11          S  0.1796499  0.4398299  0.4451329    0.00000       Uiso       1.00
      C125          C  0.8193098  0.2863499  0.4427429    0.00000       Uiso       1.00
      C126          C  0.8089898  0.2490699  0.4388129    0.00000       Uiso       1.00
       S12          S  0.7820798  0.2941699  0.4501230    0.00000       Uiso       1.00
       H71          H  0.2339799  0.5417298  0.4450029    0.00000       Uiso       1.00
       H72          H  0.8291197  0.2393499  0.4371628    0.00000       Uiso       1.00
