data_HAT-NTBA-COF
_audit_creation_date              0000-00-00
_audit_creation_method            'LanYouShi'
_symmetry_space_group_name_H-M    'P1'
_cell_length_a                    25.8299999
_cell_length_b                    25.8299999
_cell_length_c                    4.0999999
_cell_angle_alpha                 90.0000000
_cell_angle_beta                  90.0000000
_cell_angle_gamma                 120.0000000
loop_
_atom_site_label
_atom_site_type_symbol
_atom_site_fract_x
_atom_site_fract_y
_atom_site_fract_z
_atom_site_U_iso_or_equiv
_atom_site_adp_type
_atom_site_occupancy
       H11          H  1.2838041  0.8021700  0.4977200    0.00000       Uiso       1.00
       H22          H  1.3662220  0.8556020  0.5953301    0.00000       Uiso       1.00
       H33          H  1.3332729  0.9509620  1.0847601    0.00000       Uiso       1.00
       H44          H  1.2509880  0.8987489  1.0000501    0.00000       Uiso       1.00
       H55          H  1.1457980  0.6739860  0.5639700    0.00000       Uiso       1.00
       H66          H  1.1695141  0.6171040  0.6710100    0.00000       Uiso       1.00
       H77          H  1.2955520  0.7229210  1.1331000    0.00000       Uiso       1.00
       H88          H  1.2727981  0.7806400  1.0390201    0.00000       Uiso       1.00
       H99          H  0.9315600  0.5948070  1.3248800    0.00000       Uiso       1.00
     H1010          H  0.9064100  0.5120670  1.3208100    0.00000       Uiso       1.00
     H1111          H  1.0244360  0.5385740  0.7270401    0.00000       Uiso       1.00
     H1212          H  1.0503360  0.6210220  0.7185300    0.00000       Uiso       1.00
     H1313          H  0.9333570  0.7256040  1.2653000    0.00000       Uiso       1.00
     H1414          H  0.8521150  0.7013620  1.1754500    0.00000       Uiso       1.00
     H1515          H  0.8307970  0.5756650  0.7032200    0.00000       Uiso       1.00
     H1616          H  0.9111620  0.5981260  0.7818300    0.00000       Uiso       1.00
     H1717          H  1.0838090  0.9610000  0.8938500    0.00000       Uiso       1.00
     H1818          H  1.0275069  0.9867010  0.9412700    0.00000       Uiso       1.00
     H1919          H  0.9253170  0.8531070  1.3367401    0.00000       Uiso       1.00
     H2020          H  0.9812200  0.8255600  1.3089401    0.00000       Uiso       1.00
     H2121          H  1.2036320  0.9455230  0.7986900    0.00000       Uiso       1.00
     H2222          H  1.2626950  1.0244490  0.9206001    0.00000       Uiso       1.00
     H2323          H  1.1664010  1.0401690  1.5393300    0.00000       Uiso       1.00
     H2424          H  1.1062820  0.9601220  1.4335700    0.00000       Uiso       1.00
     H2525          H  0.8793470  0.8787710  0.9994100    0.00000       Uiso       1.00
     H2626          H  1.3119071  1.0940031  1.0604200    0.00000       Uiso       1.00
     H2727          H  1.4086350  1.0013219  0.8707300    0.00000       Uiso       1.00
     H2828          H  1.1947080  0.5706170  0.7900301    0.00000       Uiso       1.00
     H2929          H  0.9955880  0.4637730  0.7471700    0.00000       Uiso       1.00
     H3030          H  0.7769930  0.6720070  1.0916101    0.00000       Uiso       1.00
     H3131          H  1.4635390  0.9446430  1.3638700    0.00000       Uiso       1.00
     H3232          H  1.5416000  0.9853340  1.5809200    0.00000       Uiso       1.00
     H3333          H  1.5668271  1.1122340  1.0930001    0.00000       Uiso       1.00
     H3434          H  1.4875580  1.0717710  0.8941400    0.00000       Uiso       1.00
     H3535          H  1.3785710  1.1711690  0.9602000    0.00000       Uiso       1.00
     H3636          H  1.4193940  1.2554030  1.0165001    0.00000       Uiso       1.00
     H3737          H  1.3106790  1.2434350  1.6636400    0.00000       Uiso       1.00
     H3838          H  1.2700700  1.1595989  1.6010400    0.00000       Uiso       1.00
     H3939          H  1.6015739  0.9981360  1.2822200    0.00000       Uiso       1.00
     H4040          H  1.6786250  1.0231470  1.0935700    0.00000       Uiso       1.00
     H4141          H  1.7134620  1.1680950  1.1912600    0.00000       Uiso       1.00
     H4242          H  1.6350241  1.1426280  1.3720500    0.00000       Uiso       1.00
     H4343          H  1.4593110  1.3273311  1.2640101    0.00000       Uiso       1.00
     H4444          H  1.4851640  1.4072490  1.1194800    0.00000       Uiso       1.00
     H4545          H  1.3415869  1.3785230  1.1798601    0.00000       Uiso       1.00
     H4646          H  1.3166890  1.3000870  1.3398700    0.00000       Uiso       1.00
     H4747          H  1.8445950  1.1577140  0.9067700    0.00000       Uiso       1.00
     H4848          H  1.8953011  1.2370241  0.7428901    0.00000       Uiso       1.00
     H4949          H  1.7747650  1.2528811  0.5523900    0.00000       Uiso       1.00
     H5050          H  1.7235321  1.1726691  0.7137200    0.00000       Uiso       1.00
     H5151          H  1.7219911  1.0336890  0.6427800    0.00000       Uiso       1.00
     H5252          H  1.7529531  0.9806530  0.6996700    0.00000       Uiso       1.00
     H5353          H  1.8475571  1.0718241  1.4394300    0.00000       Uiso       1.00
     H5454          H  1.8147489  1.1223999  1.3813400    0.00000       Uiso       1.00
     H5555          H  1.4871581  1.4258471  0.6576700    0.00000       Uiso       1.00
     H5656          H  1.5666990  1.4787860  0.5023400    0.00000       Uiso       1.00
     H5757          H  1.5518950  1.5956811  0.8272400    0.00000       Uiso       1.00
     H5858          H  1.4747140  1.5431590  0.9989000    0.00000       Uiso       1.00
     H5959          H  1.4336439  1.5108110  1.4167800    0.00000       Uiso       1.00
     H6060          H  1.3795590  1.5398060  1.4595401    0.00000       Uiso       1.00
     H6161          H  1.2936471  1.4424289  0.7153000    0.00000       Uiso       1.00
     H6262          H  1.3502051  1.4160941  0.6688000    0.00000       Uiso       1.00
     H6363          H  1.3503569  1.5784179  1.3542800    0.00000       Uiso       1.00
     H6464          H  1.3086649  1.6190630  1.2696500    0.00000       Uiso       1.00
     H6565          H  1.2027230  1.5016570  0.7305900    0.00000       Uiso       1.00
     H6666          H  1.2435000  1.4593420  0.8175200    0.00000       Uiso       1.00
     H6767          H  1.9294500  1.3068080  0.4149900    0.00000       Uiso       1.00
     H6868          H  1.9810170  1.3894870  0.5290100    0.00000       Uiso       1.00
     H6969          H  1.8689970  1.3931590  1.0465000    0.00000       Uiso       1.00
     H7070          H  1.8174100  1.3113199  0.9340701    0.00000       Uiso       1.00
     H7171          H  1.7700690  0.9312170  0.8435200    0.00000       Uiso       1.00
     H7272          H  1.8111221  0.8878640  0.8394901    0.00000       Uiso       1.00
     H7373          H  1.9260720  1.0000460  1.3603500    0.00000       Uiso       1.00
     H7474          H  1.8874660  1.0442650  1.3562601    0.00000       Uiso       1.00
     H7575          H  1.6353999  1.5273039  0.3907100    0.00000       Uiso       1.00
     H7676          H  1.7168521  1.5659860  0.5268500    0.00000       Uiso       1.00
     H7777          H  1.6999370  1.6633190  1.1281099    0.00000       Uiso       1.00
     H7878          H  1.6182660  1.6244211  1.0042900    0.00000       Uiso       1.00
     C7979          C  1.0708940  0.7347390  0.8854501    0.00000       Uiso       1.00
     C8080          C  1.1177690  0.7603260  0.8232500    0.00000       Uiso       1.00
     C8181          C  1.1401340  0.8073660  0.8473300    0.00000       Uiso       1.00
     C8282          C  1.1157110  0.8293490  0.9211600    0.00000       Uiso       1.00
     C8383          C  1.0694240  0.8042890  0.9884201    0.00000       Uiso       1.00
     C8484          C  1.0469130  0.7564450  0.9734800    0.00000       Uiso       1.00
     C8585          C  1.1164430  0.8975580  1.0402300    0.00000       Uiso       1.00
     C8686          C  1.0692451  0.8731250  1.0734900    0.00000       Uiso       1.00
     C8787          C  0.9799990  0.6846850  1.0221500    0.00000       Uiso       1.00
     C8888          C  1.0054569  0.6632740  0.9737201    0.00000       Uiso       1.00
     C8989          C  1.1886460  0.7635910  0.7623800    0.00000       Uiso       1.00
     C9090          C  1.2108730  0.8111350  0.7629600    0.00000       Uiso       1.00
     C9191          C  1.0387640  0.8910080  1.1101100    0.00000       Uiso       1.00
     C9292          C  1.1483850  0.9453270  1.0955900    0.00000       Uiso       1.00
     C9393          C  0.9307860  0.6642290  1.0383301    0.00000       Uiso       1.00
     C9494          C  0.9916790  0.6156010  1.0044100    0.00000       Uiso       1.00
     C9595          C  1.2589370  0.8440720  0.7502400    0.00000       Uiso       1.00
     C9696          C  1.2078370  0.7337640  0.7773500    0.00000       Uiso       1.00
     C9797          C  1.2937920  0.8347860  0.6249200    0.00000       Uiso       1.00
     C9898          C  1.3405271  0.8649350  0.6820000    0.00000       Uiso       1.00
     C9999          C  1.3558151  0.9067751  0.8513600    0.00000       Uiso       1.00
     C1001          C  1.3224790  0.9184570  0.9517600    0.00000       Uiso       1.00
     C1011          C  1.2757270  0.8890330  0.8986500    0.00000       Uiso       1.00
     C1021          C  1.1797880  0.6858140  0.6805601    0.00000       Uiso       1.00
     C1031          C  1.1928860  0.6533180  0.7471400    0.00000       Uiso       1.00
     C1041          C  1.2346300  0.6657940  0.9098700    0.00000       Uiso       1.00
     C1051          C  1.2630130  0.7125640  1.0015901    0.00000       Uiso       1.00
     C1061          C  1.2510020  0.7459210  0.9353900    0.00000       Uiso       1.00
     C1071          C  0.9519160  0.5830840  1.1865300    0.00000       Uiso       1.00
     C1081          C  0.9380670  0.5363500  1.1880100    0.00000       Uiso       1.00
     C1091          C  0.9627040  0.5188460  1.0194401    0.00000       Uiso       1.00
     C1101          C  1.0037900  0.5506640  0.8594110    0.00000       Uiso       1.00
     C1111          C  1.0185680  0.5975700  0.8545730    0.00000       Uiso       1.00
     C1121          C  0.9108370  0.6914720  1.1512251    0.00000       Uiso       1.00
     C1131          C  0.8648950  0.6781660  1.0936900    0.00000       Uiso       1.00
     C1141          C  0.8352770  0.6365620  0.9301561    0.00000       Uiso       1.00
     C1151          C  0.8534380  0.6082330  0.8331620    0.00000       Uiso       1.00
     C1161          C  0.8991080  0.6204300  0.8896410    0.00000       Uiso       1.00
     C1171          C  1.0502350  0.9370520  1.0064991    0.00000       Uiso       1.00
     C1181          C  1.0179089  0.9514470  1.0251139    0.00000       Uiso       1.00
     C1191          C  0.9727900  0.9218880  1.1422020    0.00000       Uiso       1.00
     C1201          C  0.9605570  0.8767370  1.2435091    0.00000       Uiso       1.00
     C1211          C  0.9921860  0.8613920  1.2297561    0.00000       Uiso       1.00
     C1221          C  1.1945059  0.9659850  0.9608870    0.00000       Uiso       1.00
     C1231          C  1.2282560  1.0108240  1.0327950    0.00000       Uiso       1.00
     C1241          C  1.2189690  1.0385370  1.2398751    0.00000       Uiso       1.00
     C1251          C  1.1741010  1.0191300  1.3734111    0.00000       Uiso       1.00
     C1261          C  1.1396110  0.9742121  1.3065720    0.00000       Uiso       1.00
     C1271          C  0.8975120  0.9152321  1.0831890    0.00000       Uiso       1.00
     C1281          C  1.2950950  1.1085390  1.2120680    0.00000       Uiso       1.00
     C1291          C  1.4240370  0.9802930  0.9523110    0.00000       Uiso       1.00
     C1301          C  1.2283540  0.5895090  0.9158450    0.00000       Uiso       1.00
     C1311          C  0.9607510  0.4474140  0.8577780    0.00000       Uiso       1.00
     C1321          C  0.7638970  0.6407460  0.9400700    0.00000       Uiso       1.00
     C1331          C  1.3206481  1.1582930  1.2722660    0.00000       Uiso       1.00
     C1341          C  1.4693010  1.0046121  1.1047590    0.00000       Uiso       1.00
     C1351          C  1.4856610  0.9818969  1.3068880    0.00000       Uiso       1.00
     C1361          C  1.5294870  1.0053880  1.4408090    0.00000       Uiso       1.00
     C1371          C  1.5615860  1.0522469  1.3549720    0.00000       Uiso       1.00
     C1381          C  1.5432520  1.0764440  1.1773421    0.00000       Uiso       1.00
     C1391          C  1.4988379  1.0526659  1.0513811    0.00000       Uiso       1.00
     C1401          C  1.3639230  1.1866500  1.1227480    0.00000       Uiso       1.00
     C1411          C  1.3879480  1.2343661  1.1611220    0.00000       Uiso       1.00
     C1421          C  1.3688171  1.2570710  1.3473531    0.00000       Uiso       1.00
     C1431          C  1.3266610  1.2277830  1.5149370    0.00000       Uiso       1.00
     C1441          C  1.3032950  1.1802140  1.4734670    0.00000       Uiso       1.00
     C1451          C  1.3857000  1.3061579  1.3146811    0.00000       Uiso       1.00
     C1461          C  1.6108249  1.0680749  1.3477650    0.00000       Uiso       1.00
     C1471          C  1.6264560  1.0359350  1.2778670    0.00000       Uiso       1.00
     C1481          C  1.6703370  1.0505300  1.1549290    0.00000       Uiso       1.00
     C1491          C  1.7028199  1.0982319  1.1058390    0.00000       Uiso       1.00
     C1501          C  1.6887730  1.1302760  1.2004330    0.00000       Uiso       1.00
     C1511          C  1.6447531  1.1159581  1.3208611    0.00000       Uiso       1.00
     C1521          C  1.4332310  1.3386590  1.2491380    0.00000       Uiso       1.00
     C1531          C  1.4474211  1.3837169  1.1517601    0.00000       Uiso       1.00
     C1541          C  1.4155281  1.3998770  1.1105181    0.00000       Uiso       1.00
     C1551          C  1.3685830  1.3683950  1.1931391    0.00000       Uiso       1.00
     C1561          C  1.3541840  1.3236140  1.2962741    0.00000       Uiso       1.00
     C1571          C  1.4748440  1.4786659  0.8719940    0.00000       Uiso       1.00
     C1581          C  1.3964649  1.4621590  1.0347050    0.00000       Uiso       1.00
     C1591          C  1.7662640  1.0817471  1.0083650    0.00000       Uiso       1.00
     C1601          C  1.7791030  1.1589060  0.8496540    0.00000       Uiso       1.00
     C1611          C  1.8279920  1.1778750  0.8323440    0.00000       Uiso       1.00
     C1621          C  1.8573600  1.2225840  0.7205320    0.00000       Uiso       1.00
     C1631          C  1.8396740  1.2525489  0.6359330    0.00000       Uiso       1.00
     C1641          C  1.7904310  1.2315440  0.6195110    0.00000       Uiso       1.00
     C1651          C  1.7614440  1.1866480  0.7277420    0.00000       Uiso       1.00
     C1661          C  1.7491699  1.0410939  0.8224860    0.00000       Uiso       1.00
     C1671          C  1.7666500  1.0111680  0.8580080    0.00000       Uiso       1.00
     C1681          C  1.8033799  1.0209200  1.0753540    0.00000       Uiso       1.00
     C1691          C  1.8200080  1.0621570  1.2603559    0.00000       Uiso       1.00
     C1701          C  1.8016130  1.0911700  1.2300400    0.00000       Uiso       1.00
     C1711          C  1.5017869  1.4632710  0.7077390    0.00000       Uiso       1.00
     C1721          C  1.5465140  1.4940370  0.6013020    0.00000       Uiso       1.00
     C1731          C  1.5682261  1.5427071  0.6633300    0.00000       Uiso       1.00
     C1741          C  1.5384250  1.5583129  0.7823570    0.00000       Uiso       1.00
     C1751          C  1.4940391  1.5275130  0.8924200    0.00000       Uiso       1.00
     C1761          C  1.4030700  1.4965470  1.2576100    0.00000       Uiso       1.00
     C1771          C  1.3717290  1.5123280  1.2829920    0.00000       Uiso       1.00
     C1781          C  1.3309470  1.4940701  1.0915370    0.00000       Uiso       1.00
     C1791          C  1.3236250  1.4576000  0.8786700    0.00000       Uiso       1.00
     C1801          C  1.3558780  1.4429671  0.8465420    0.00000       Uiso       1.00
     C1811          C  1.3014480  1.5148259  1.0906650    0.00000       Uiso       1.00
     C1821          C  1.6185380  1.5720470  0.6812530    0.00000       Uiso       1.00
     C1831          C  1.8685240  1.3022020  0.6555410    0.00000       Uiso       1.00
     C1841          C  1.8247410  0.9921800  1.0982649    0.00000       Uiso       1.00
     C1851          C  1.3172419  1.5599829  1.2230541    0.00000       Uiso       1.00
     C1861          C  1.2937720  1.5837541  1.1687311    0.00000       Uiso       1.00
     C1871          C  1.2524160  1.5641890  0.9877540    0.00000       Uiso       1.00
     C1881          C  1.2349440  1.5184700  0.8730710    0.00000       Uiso       1.00
     C1891          C  1.2580800  1.4941990  0.9248180    0.00000       Uiso       1.00
     C1901          C  1.9158819  1.3260790  0.5490750    0.00000       Uiso       1.00
     C1911          C  1.9449260  1.3725350  0.6181520    0.00000       Uiso       1.00
     C1921          C  1.9293340  1.3983550  0.7942510    0.00000       Uiso       1.00
     C1931          C  1.8827430  1.3749300  0.9024920    0.00000       Uiso       1.00
     C1941          C  1.8528590  1.3288230  0.8330280    0.00000       Uiso       1.00
     C1951          C  1.8043489  0.9467770  0.9603910    0.00000       Uiso       1.00
     C1961          C  1.8276631  0.9220690  0.9584810    0.00000       Uiso       1.00
     C1971          C  1.8721991  0.9403300  1.0959021    0.00000       Uiso       1.00
     C1981          C  1.8917140  0.9843280  1.2437600    0.00000       Uiso       1.00
     C1991          C  1.8691211  1.0095030  1.2463020    0.00000       Uiso       1.00
     C2002          C  1.6490381  1.5577710  0.5493950    0.00000       Uiso       1.00
     C2012          C  1.6954880  1.5795799  0.6310660    0.00000       Uiso       1.00
     C2022          C  1.7155030  1.6179760  0.8409740    0.00000       Uiso       1.00
     C2032          C  1.6862280  1.6338760  0.9599880    0.00000       Uiso       1.00
     C2042          C  1.6396581  1.6123010  0.8821880    0.00000       Uiso       1.00
     N2052          N  1.1397940  0.8751900  0.9456260    0.00000       Uiso       1.00
     N2062          N  1.0453640  0.8249040  1.0665921    0.00000       Uiso       1.00
     N2072          N  1.0018330  0.7326610  1.0410919    0.00000       Uiso       1.00
     N2082          N  1.0515090  0.6888530  0.8841791    0.00000       Uiso       1.00
     N2092          N  1.1407310  0.7378870  0.7686790    0.00000       Uiso       1.00
     N2102          N  1.1857179  0.8333530  0.8125581    0.00000       Uiso       1.00
     N2112          N  0.9414150  0.9383081  1.1542211    0.00000       Uiso       1.00
     N2122          N  1.2525001  1.0846680  1.3144571    0.00000       Uiso       1.00
     N2132          N  1.4029781  0.9351690  0.9305161    0.00000       Uiso       1.00
     N2142          N  1.2488780  0.6335500  0.9851410    0.00000       Uiso       1.00
     N2152          N  0.9443890  0.4704430  1.0068910    0.00000       Uiso       1.00
     N2162          N  0.7887380  0.6222830  0.8556270    0.00000       Uiso       1.00
     N2172          N  1.4294950  1.4465669  1.0026250    0.00000       Uiso       1.00
     N2182          N  1.7485830  1.1129910  0.9777140    0.00000       Uiso       1.00
