data_crystal
 
_cell_length_a    50.30000
_cell_length_b    50.30000
_cell_length_c    7.80000
_cell_angle_alpha 90.00000
_cell_angle_beta  90.00000
_cell_angle_gamma 90.00000
 
_symmetry_space_group_name_Hall 'P 1'
_symmetry_space_group_name_H-M  'P 1'
 
loop_
_symmetry_equiv_pos_as_xyz
 'x,y,z' 
 
loop_
_atom_site_label
_atom_site_type_symbol
_atom_site_fract_x
_atom_site_fract_y
_atom_site_fract_z
_atom_site_charge
C          C       0.47292   0.64103   0.12726   0.0000000000
C          C       0.45355   0.66039   0.12707   0.0000000000
C          C       0.46112   0.61668   0.18531   0.0000000000
C          C       0.42919   0.64860   0.18503   0.0000000000
N          N       0.43461   0.62210   0.21271   0.0000000000
C          C       0.46054   0.56782   0.24946   0.0000000000
C          C       0.47319   0.54321   0.30681   0.0000000000
C          C       0.45408   0.52409   0.30632   0.0000000000
C          C       0.42949   0.53676   0.24880   0.0000000000
N          N       0.43399   0.56332   0.22234   0.0000000000
C          C       0.38064   0.53619   0.18397   0.0000000000
C          C       0.35632   0.52440   0.12549   0.0000000000
C          C       0.33695   0.54377   0.12528   0.0000000000
C          C       0.34872   0.56811   0.18364   0.0000000000
N          N       0.37522   0.56269   0.21158   0.0000000000
C          C       0.34925   0.61697   0.24796   0.0000000000
C          C       0.33655   0.64158   0.30504   0.0000000000
C          C       0.35568   0.66069   0.30554   0.0000000000
C          C       0.38031   0.64803   0.24866   0.0000000000
N          N       0.37581   0.62148   0.22176   0.0000000000
C          C       0.33556   0.59272   0.21571   0.0000000000
C          C       0.40525   0.52305   0.21640   0.0000000000
C          C       0.47425   0.59207   0.21762   0.0000000000
C          C       0.40456   0.66174   0.21698   0.0000000000
H          H       0.31636   0.54083   0.08425   0.0000000000
H          H       0.35340   0.50380   0.08465   0.0000000000
H          H       0.45695   0.50340   0.34636   0.0000000000
H          H       0.49385   0.54034   0.34745   0.0000000000
H          H       0.49353   0.64397   0.08667   0.0000000000
H          H       0.45648   0.68100   0.08633   0.0000000000
H          H       0.35279   0.68136   0.34587   0.0000000000
H          H       0.31585   0.64446   0.34475   0.0000000000
C          C       0.50382   0.59206   0.21712   0.0000000000
C          C       0.51830   0.57143   0.13614   0.0000000000
C          C       0.51839   0.61265   0.29792   0.0000000000
C          C       0.54597   0.57140   0.13780   0.0000000000
H          H       0.50779   0.55555   0.06714   0.0000000000
C          C       0.54606   0.61255   0.29601   0.0000000000
H          H       0.50800   0.62858   0.36719   0.0000000000
C          C       0.56015   0.59196   0.21687   0.0000000000
H          H       0.55784   0.55585   0.07509   0.0000000000
H          H       0.55807   0.62801   0.35853   0.0000000000
B          B       0.58987   0.59204   0.21740   0.0000000000
O          O       0.60563   0.57161   0.15207   0.0000000000
O          O       0.60538   0.61261   0.28348   0.0000000000
C          C       0.63174   0.57965   0.17836   0.0000000000
C          C       0.63159   0.60479   0.25844   0.0000000000
C          C       0.65507   0.56595   0.13470   0.0000000000
C          C       0.65475   0.61870   0.30307   0.0000000000
C          C       0.67823   0.57986   0.17931   0.0000000000
H          H       0.65519   0.54647   0.07167   0.0000000000
C          C       0.67807   0.60501   0.25940   0.0000000000
H          H       0.65462   0.63819   0.36605   0.0000000000
O          O       0.70443   0.57206   0.15407   0.0000000000
O          O       0.70418   0.61306   0.28553   0.0000000000
B          B       0.71994   0.59264   0.22002   0.0000000000
C          C       0.74967   0.59275   0.22004   0.0000000000
C          C       0.76373   0.57219   0.14036   0.0000000000
C          C       0.76386   0.61330   0.29900   0.0000000000
C          C       0.79140   0.57213   0.13780   0.0000000000
H          H       0.75170   0.55675   0.07795   0.0000000000
C          C       0.79153   0.61330   0.30003   0.0000000000
H          H       0.75202   0.62883   0.36212   0.0000000000
C          C       0.80599   0.59271   0.21854   0.0000000000
H          H       0.80177   0.55623   0.06803   0.0000000000
H          H       0.80206   0.62918   0.36894   0.0000000000
C          C       0.40526   0.49348   0.21554   0.0000000000
C          C       0.38467   0.47888   0.29608   0.0000000000
C          C       0.42590   0.47903   0.13449   0.0000000000
C          C       0.38477   0.45121   0.29379   0.0000000000
H          H       0.36872   0.48925   0.36540   0.0000000000
C          C       0.42593   0.45135   0.13570   0.0000000000
H          H       0.44179   0.48956   0.06575   0.0000000000
C          C       0.40537   0.43715   0.21452   0.0000000000
H          H       0.36931   0.43918   0.35609   0.0000000000
H          H       0.44149   0.43951   0.07287   0.0000000000
B          B       0.40527   0.40743   0.21468   0.0000000000
O          O       0.38471   0.39191   0.28080   0.0000000000
O          O       0.42569   0.39167   0.14902   0.0000000000
C          C       0.39252   0.36571   0.25549   0.0000000000
C          C       0.41764   0.36556   0.17518   0.0000000000
C          C       0.37861   0.34254   0.30017   0.0000000000
C          C       0.43133   0.34224   0.13134   0.0000000000
C          C       0.39230   0.31922   0.25632   0.0000000000
H          H       0.35915   0.34266   0.36339   0.0000000000
C          C       0.41743   0.31908   0.17600   0.0000000000
H          H       0.45080   0.34212   0.06813   0.0000000000
O          O       0.38427   0.29311   0.28255   0.0000000000
O          O       0.42524   0.29287   0.15073   0.0000000000
B          B       0.40468   0.27736   0.21693   0.0000000000
C          C       0.40458   0.24763   0.21722   0.0000000000
C          C       0.38404   0.23347   0.29645   0.0000000000
C          C       0.42514   0.23354   0.13768   0.0000000000
C          C       0.38404   0.20579   0.29791   0.0000000000
H          H       0.36852   0.24534   0.35946   0.0000000000
C          C       0.42519   0.20587   0.13553   0.0000000000
H          H       0.44059   0.24554   0.07502   0.0000000000
C          C       0.40462   0.19130   0.21653   0.0000000000
H          H       0.36817   0.19529   0.36707   0.0000000000
H          H       0.44109   0.19547   0.06586   0.0000000000
C          C       0.30599   0.59270   0.21461   0.0000000000
C          C       0.29153   0.61330   0.13322   0.0000000000
C          C       0.29140   0.57212   0.29525   0.0000000000
C          C       0.26386   0.61331   0.13426   0.0000000000
H          H       0.30206   0.62919   0.06440   0.0000000000
C          C       0.26373   0.57218   0.29272   0.0000000000
H          H       0.30177   0.55620   0.36490   0.0000000000
C          C       0.24966   0.59275   0.21313   0.0000000000
H          H       0.25201   0.62884   0.07121   0.0000000000
H          H       0.25170   0.55673   0.35507   0.0000000000
B          B       0.21994   0.59264   0.21319   0.0000000000
O          O       0.20418   0.61307   0.14771   0.0000000000
O          O       0.20443   0.57206   0.27912   0.0000000000
C          C       0.17807   0.60502   0.17382   0.0000000000
C          C       0.17822   0.57987   0.25389   0.0000000000
C          C       0.15474   0.61871   0.13018   0.0000000000
C          C       0.15506   0.56596   0.29849   0.0000000000
C          C       0.13159   0.60480   0.17480   0.0000000000
H          H       0.15462   0.63820   0.06721   0.0000000000
C          C       0.13174   0.57966   0.25484   0.0000000000
H          H       0.15519   0.54648   0.36150   0.0000000000
O          O       0.10538   0.61262   0.14975   0.0000000000
O          O       0.10563   0.57161   0.28112   0.0000000000
B          B       0.08987   0.59205   0.21580   0.0000000000
C          C       0.06015   0.59196   0.21631   0.0000000000
C          C       0.04606   0.61256   0.13723   0.0000000000
C          C       0.04597   0.57140   0.29528   0.0000000000
C          C       0.01839   0.61266   0.13532   0.0000000000
H          H       0.05807   0.62803   0.07478   0.0000000000
C          C       0.01830   0.57143   0.29691   0.0000000000
H          H       0.05784   0.55584   0.35794   0.0000000000
C          C       0.00382   0.59206   0.21603   0.0000000000
H          H       0.00799   0.62860   0.06614   0.0000000000
H          H       0.00779   0.55553   0.36581   0.0000000000
C          C       0.40457   0.69130   0.21626   0.0000000000
C          C       0.42513   0.70588   0.29727   0.0000000000
C          C       0.38397   0.70578   0.13487   0.0000000000
C          C       0.42505   0.73355   0.29513   0.0000000000
H          H       0.44103   0.69549   0.36693   0.0000000000
C          C       0.38395   0.73345   0.13636   0.0000000000
H          H       0.36811   0.69526   0.06571   0.0000000000
C          C       0.40448   0.74763   0.21562   0.0000000000
H          H       0.44048   0.74557   0.35779   0.0000000000
H          H       0.36842   0.74531   0.07334   0.0000000000
B          B       0.40457   0.77735   0.21607   0.0000000000
O          O       0.42512   0.79286   0.28232   0.0000000000
O          O       0.38415   0.79311   0.15054   0.0000000000
C          C       0.41731   0.81907   0.25722   0.0000000000
C          C       0.39218   0.81922   0.17691   0.0000000000
C          C       0.43121   0.84223   0.30199   0.0000000000
C          C       0.37849   0.84255   0.13319   0.0000000000
C          C       0.41752   0.86556   0.25825   0.0000000000
H          H       0.45068   0.84211   0.36518   0.0000000000
C          C       0.39239   0.86571   0.17796   0.0000000000
H          H       0.35902   0.84267   0.06998   0.0000000000
O          O       0.42556   0.89167   0.28450   0.0000000000
O          O       0.38459   0.89191   0.15275   0.0000000000
B          B       0.40515   0.90742   0.21889   0.0000000000
C          C       0.40526   0.93715   0.21907   0.0000000000
C          C       0.42583   0.95133   0.29785   0.0000000000
C          C       0.38467   0.95122   0.13975   0.0000000000
C          C       0.42582   0.97901   0.29903   0.0000000000
H          H       0.44138   0.93949   0.36069   0.0000000000
C          C       0.38459   0.97889   0.13744   0.0000000000
H          H       0.36920   0.93919   0.07748   0.0000000000
C          C       0.40519   0.99348   0.21795   0.0000000000
H          H       0.44172   0.98953   0.36775   0.0000000000
H          H       0.36865   0.98927   0.06809   0.0000000000
C          C       0.83556   0.59273   0.21741   0.0000000000
C          C       0.84925   0.61698   0.18534   0.0000000000
C          C       0.84872   0.56811   0.24931   0.0000000000
C          C       0.83655   0.64160   0.12844   0.0000000000
N          N       0.87581   0.62148   0.21161   0.0000000000
C          C       0.83695   0.54376   0.30750   0.0000000000
N          N       0.87521   0.56269   0.22130   0.0000000000
C          C       0.85567   0.66072   0.12815   0.0000000000
H          H       0.81586   0.64449   0.08868   0.0000000000
C          C       0.88030   0.64804   0.18496   0.0000000000
C          C       0.85631   0.52439   0.30711   0.0000000000
H          H       0.81636   0.54082   0.34858   0.0000000000
C          C       0.88064   0.53619   0.24868   0.0000000000
H          H       0.85278   0.68140   0.08804   0.0000000000
C          C       0.90456   0.66174   0.21673   0.0000000000
H          H       0.85339   0.50378   0.34775   0.0000000000
C          C       0.90525   0.52305   0.21617   0.0000000000
C          C       0.92919   0.64859   0.24859   0.0000000000
C          C       0.92948   0.53676   0.18387   0.0000000000
C          C       0.95354   0.66038   0.30663   0.0000000000
N          N       0.93460   0.62210   0.22068   0.0000000000
C          C       0.95408   0.52410   0.12628   0.0000000000
N          N       0.93399   0.56332   0.21055   0.0000000000
C          C       0.97292   0.64102   0.30624   0.0000000000
H          H       0.95648   0.68097   0.34759   0.0000000000
C          C       0.96111   0.61668   0.24800   0.0000000000
C          C       0.97319   0.54322   0.12600   0.0000000000
H          H       0.95695   0.50343   0.08604   0.0000000000
C          C       0.96053   0.56783   0.18350   0.0000000000
H          H       0.99353   0.64395   0.34680   0.0000000000
C          C       0.97425   0.59207   0.21553   0.0000000000
H          H       0.99385   0.54036   0.08543   0.0000000000
C          C       0.40460   0.16174   0.21585   0.0000000000
C          C       0.42922   0.14858   0.24782   0.0000000000
C          C       0.38034   0.14804   0.18422   0.0000000000
C          C       0.45358   0.16037   0.30575   0.0000000000
N          N       0.43462   0.12208   0.22023   0.0000000000
C          C       0.35571   0.16072   0.12732   0.0000000000
N          N       0.37583   0.12149   0.21121   0.0000000000
C          C       0.47294   0.14100   0.30568   0.0000000000
H          H       0.45653   0.18098   0.34645   0.0000000000
C          C       0.46113   0.11665   0.24767   0.0000000000
C          C       0.33658   0.14161   0.12793   0.0000000000
H          H       0.35283   0.18138   0.08693   0.0000000000
C          C       0.34926   0.11700   0.18507   0.0000000000
H          H       0.49355   0.14392   0.34630   0.0000000000
C          C       0.47425   0.09203   0.21546   0.0000000000
H          H       0.31588   0.14451   0.08827   0.0000000000
C          C       0.33556   0.09276   0.21740   0.0000000000
C          C       0.46052   0.06778   0.18371   0.0000000000
C          C       0.34871   0.06815   0.24955   0.0000000000
C          C       0.47316   0.04316   0.12645   0.0000000000
N          N       0.43397   0.06329   0.21088   0.0000000000
C          C       0.33692   0.04381   0.30800   0.0000000000
N          N       0.37520   0.06271   0.22165   0.0000000000
C          C       0.45404   0.02404   0.12707   0.0000000000
H          H       0.49381   0.04028   0.08578   0.0000000000
C          C       0.42945   0.03673   0.18455   0.0000000000
C          C       0.35628   0.02444   0.30790   0.0000000000
H          H       0.31632   0.04090   0.34900   0.0000000000
C          C       0.38061   0.03621   0.24939   0.0000000000
H          H       0.45690   0.00335   0.08714   0.0000000000
C          C       0.40521   0.02305   0.21700   0.0000000000
H          H       0.35334   0.00384   0.34885   0.0000000000
C          C       0.90526   0.49348   0.21685   0.0000000000
C          C       0.88467   0.47889   0.13620   0.0000000000
C          C       0.92590   0.47902   0.29781   0.0000000000
C          C       0.88478   0.45122   0.13827   0.0000000000
H          H       0.86872   0.48927   0.06698   0.0000000000
C          C       0.92594   0.45134   0.29636   0.0000000000
H          H       0.94179   0.48954   0.36664   0.0000000000
C          C       0.90538   0.43715   0.21744   0.0000000000
H          H       0.86932   0.43919   0.07590   0.0000000000
H          H       0.94150   0.43950   0.35912   0.0000000000
B          B       0.90529   0.40743   0.21705   0.0000000000
O          O       0.88472   0.39192   0.15085   0.0000000000
O          O       0.92570   0.39166   0.28262   0.0000000000
C          C       0.89252   0.36572   0.17603   0.0000000000
C          C       0.91765   0.36556   0.25632   0.0000000000
C          C       0.87862   0.34256   0.13129   0.0000000000
C          C       0.93133   0.34222   0.30011   0.0000000000
C          C       0.89230   0.31923   0.17508   0.0000000000
H          H       0.85915   0.34269   0.06809   0.0000000000
C          C       0.91742   0.31907   0.25538   0.0000000000
H          H       0.95080   0.34210   0.36332   0.0000000000
O          O       0.88425   0.29312   0.14885   0.0000000000
O          O       0.92522   0.29286   0.28065   0.0000000000
B          B       0.90465   0.27736   0.21450   0.0000000000
C          C       0.90454   0.24763   0.21435   0.0000000000
C          C       0.88399   0.23345   0.13525   0.0000000000
C          C       0.92509   0.23355   0.29400   0.0000000000
C          C       0.88399   0.20578   0.13404   0.0000000000
H          H       0.86847   0.24531   0.07212   0.0000000000
C          C       0.92515   0.20589   0.29643   0.0000000000
H          H       0.94054   0.24558   0.35655   0.0000000000
C          C       0.90458   0.19131   0.21553   0.0000000000
H          H       0.86813   0.19526   0.06500   0.0000000000
H          H       0.94104   0.19550   0.36619   0.0000000000
C          C       0.90458   0.69131   0.21767   0.0000000000
C          C       0.88399   0.70578   0.29916   0.0000000000
C          C       0.92515   0.70589   0.13677   0.0000000000
C          C       0.88399   0.73345   0.29795   0.0000000000
H          H       0.86813   0.69526   0.36819   0.0000000000
C          C       0.92509   0.73356   0.13919   0.0000000000
H          H       0.94104   0.69551   0.06702   0.0000000000
C          C       0.90454   0.74763   0.21885   0.0000000000
H          H       0.86847   0.74531   0.36107   0.0000000000
H          H       0.94053   0.74558   0.07664   0.0000000000
B          B       0.90465   0.77736   0.21869   0.0000000000
O          O       0.88424   0.79312   0.28434   0.0000000000
O          O       0.92522   0.79286   0.15255   0.0000000000
C          C       0.89229   0.81923   0.25811   0.0000000000
C          C       0.91742   0.81907   0.17782   0.0000000000
C          C       0.87861   0.84256   0.30191   0.0000000000
C          C       0.93133   0.84223   0.13311   0.0000000000
C          C       0.89252   0.86572   0.25718   0.0000000000
H          H       0.85914   0.84268   0.36511   0.0000000000
C          C       0.91765   0.86556   0.17689   0.0000000000
H          H       0.95080   0.84210   0.06990   0.0000000000
O          O       0.88472   0.89192   0.28236   0.0000000000
O          O       0.92569   0.89167   0.15060   0.0000000000
B          B       0.90528   0.90743   0.21616   0.0000000000
C          C       0.90537   0.93715   0.21577   0.0000000000
C          C       0.88477   0.95122   0.29494   0.0000000000
C          C       0.92593   0.95134   0.13685   0.0000000000
C          C       0.88466   0.97889   0.29698   0.0000000000
H          H       0.86931   0.93919   0.35731   0.0000000000
C          C       0.92589   0.97902   0.13539   0.0000000000
H          H       0.94149   0.93950   0.07409   0.0000000000
C          C       0.90525   0.99348   0.21636   0.0000000000
H          H       0.86871   0.98927   0.36622   0.0000000000
H          H       0.94178   0.98954   0.06656   0.0000000000
C          C       0.90456   0.16174   0.21645   0.0000000000
C          C       0.88030   0.14804   0.24823   0.0000000000
C          C       0.92919   0.14859   0.18461   0.0000000000
C          C       0.85567   0.16072   0.30504   0.0000000000
N          N       0.87581   0.12149   0.22157   0.0000000000
C          C       0.95354   0.16038   0.12658   0.0000000000
N          N       0.93460   0.12210   0.21250   0.0000000000
C          C       0.83655   0.14160   0.30475   0.0000000000
H          H       0.85279   0.18140   0.34516   0.0000000000
C          C       0.84924   0.11699   0.24785   0.0000000000
C          C       0.97291   0.14102   0.12698   0.0000000000
H          H       0.95648   0.18097   0.08562   0.0000000000
C          C       0.96111   0.11668   0.18521   0.0000000000
H          H       0.81586   0.14449   0.34452   0.0000000000
C          C       0.83556   0.09273   0.21578   0.0000000000
H          H       0.99353   0.14395   0.08643   0.0000000000
C          C       0.97425   0.09207   0.21768   0.0000000000
C          C       0.84872   0.06811   0.18390   0.0000000000
C          C       0.96053   0.06783   0.24969   0.0000000000
C          C       0.83694   0.04376   0.12569   0.0000000000
N          N       0.87521   0.06270   0.21191   0.0000000000
C          C       0.97318   0.04322   0.30721   0.0000000000
N          N       0.93398   0.06332   0.22266   0.0000000000
C          C       0.85630   0.02439   0.12610   0.0000000000
H          H       0.81635   0.04083   0.08463   0.0000000000
C          C       0.88063   0.03619   0.18452   0.0000000000
C          C       0.95407   0.02410   0.30693   0.0000000000
H          H       0.99384   0.04036   0.34778   0.0000000000
C          C       0.92948   0.03676   0.24934   0.0000000000
H          H       0.85338   0.00378   0.08546   0.0000000000
C          C       0.90524   0.02305   0.21704   0.0000000000
H          H       0.95694   0.00343   0.34717   0.0000000000
C          C       0.50382   0.09201   0.21596   0.0000000000
C          C       0.51829   0.07138   0.29698   0.0000000000
C          C       0.51840   0.11258   0.13512   0.0000000000
C          C       0.54596   0.07134   0.29537   0.0000000000
H          H       0.50777   0.05550   0.36602   0.0000000000
C          C       0.54606   0.11248   0.13708   0.0000000000
H          H       0.50801   0.12852   0.06580   0.0000000000
C          C       0.56014   0.09189   0.21628   0.0000000000
H          H       0.55781   0.05578   0.35814   0.0000000000
H          H       0.55808   0.12793   0.07457   0.0000000000
B          B       0.58987   0.09198   0.21578   0.0000000000
O          O       0.60563   0.07155   0.28113   0.0000000000
O          O       0.60537   0.11255   0.14969   0.0000000000
C          C       0.63174   0.07961   0.25484   0.0000000000
C          C       0.63158   0.10475   0.17476   0.0000000000
C          C       0.65507   0.06592   0.29850   0.0000000000
C          C       0.65473   0.11867   0.13014   0.0000000000
C          C       0.67823   0.07984   0.25391   0.0000000000
H          H       0.65520   0.04644   0.36155   0.0000000000
C          C       0.67806   0.10498   0.17381   0.0000000000
H          H       0.65460   0.13816   0.06714   0.0000000000
O          O       0.70443   0.07205   0.27914   0.0000000000
O          O       0.70417   0.11305   0.14768   0.0000000000
B          B       0.71994   0.09263   0.21321   0.0000000000
C          C       0.74966   0.09276   0.21316   0.0000000000
C          C       0.76373   0.07220   0.29284   0.0000000000
C          C       0.76385   0.11331   0.13420   0.0000000000
C          C       0.79139   0.07213   0.29541   0.0000000000
H          H       0.75169   0.05675   0.35525   0.0000000000
C          C       0.79153   0.11330   0.13317   0.0000000000
H          H       0.75201   0.12884   0.07108   0.0000000000
C          C       0.80599   0.09271   0.21466   0.0000000000
H          H       0.80177   0.05623   0.36518   0.0000000000
H          H       0.80206   0.12918   0.06427   0.0000000000
C          C       0.30599   0.09276   0.21853   0.0000000000
C          C       0.29138   0.07217   0.13793   0.0000000000
C          C       0.29154   0.11337   0.29987   0.0000000000
C          C       0.26372   0.07225   0.14050   0.0000000000
H          H       0.30175   0.05625   0.06830   0.0000000000
C          C       0.26386   0.11338   0.29889   0.0000000000
H          H       0.30207   0.12925   0.36863   0.0000000000
C          C       0.24966   0.09282   0.22007   0.0000000000
H          H       0.25168   0.05680   0.07819   0.0000000000
H          H       0.25203   0.12892   0.36194   0.0000000000
B          B       0.21994   0.09270   0.22003   0.0000000000
O          O       0.20443   0.07212   0.15412   0.0000000000
O          O       0.20417   0.11312   0.28552   0.0000000000
C          C       0.17823   0.07991   0.17935   0.0000000000
C          C       0.17806   0.10506   0.25941   0.0000000000
C          C       0.15507   0.06599   0.13476   0.0000000000
C          C       0.15473   0.11875   0.30305   0.0000000000
C          C       0.13174   0.07968   0.17840   0.0000000000
H          H       0.15520   0.04651   0.07175   0.0000000000
C          C       0.13158   0.10483   0.25845   0.0000000000
H          H       0.15460   0.13823   0.36602   0.0000000000
O          O       0.10563   0.07163   0.15212   0.0000000000
O          O       0.10537   0.11263   0.28350   0.0000000000
B          B       0.08987   0.09205   0.21744   0.0000000000
C          C       0.06014   0.09196   0.21691   0.0000000000
C          C       0.04597   0.07140   0.13794   0.0000000000
C          C       0.04606   0.11256   0.29598   0.0000000000
C          C       0.01830   0.07142   0.13631   0.0000000000
H          H       0.05783   0.05584   0.07528   0.0000000000
C          C       0.01839   0.11265   0.29790   0.0000000000
H          H       0.05807   0.12802   0.35841   0.0000000000
C          C       0.00382   0.09206   0.21718   0.0000000000
H          H       0.00779   0.05553   0.06741   0.0000000000
H          H       0.00799   0.12860   0.36707   0.0000000000
H          H       0.42089   0.60838   0.25648   0.0000000000
H          H       0.38892   0.57641   0.25566   0.0000000000
H          H       0.92088   0.60839   0.17681   0.0000000000
H          H       0.88892   0.57642   0.17730   0.0000000000
H          H       0.42089   0.10837   0.17649   0.0000000000
H          H       0.38891   0.07641   0.17752   0.0000000000
H          H       0.92088   0.10839   0.25637   0.0000000000
H          H       0.88891   0.07642   0.25591   0.0000000000
C          C       0.47292   0.64103   0.62726   0.0000000000
C          C       0.45355   0.66039   0.62708   0.0000000000
C          C       0.46112   0.61668   0.68531   0.0000000000
C          C       0.42919   0.64860   0.68502   0.0000000000
N          N       0.43461   0.62210   0.71271   0.0000000000
C          C       0.46054   0.56782   0.74946   0.0000000000
C          C       0.47319   0.54321   0.80681   0.0000000000
C          C       0.45408   0.52409   0.80632   0.0000000000
C          C       0.42949   0.53676   0.74879   0.0000000000
N          N       0.43399   0.56332   0.72234   0.0000000000
C          C       0.38064   0.53619   0.68398   0.0000000000
C          C       0.35632   0.52440   0.62549   0.0000000000
C          C       0.33695   0.54377   0.62528   0.0000000000
C          C       0.34872   0.56811   0.68364   0.0000000000
N          N       0.37522   0.56269   0.71158   0.0000000000
C          C       0.34925   0.61697   0.74796   0.0000000000
C          C       0.33655   0.64158   0.80504   0.0000000000
C          C       0.35568   0.66069   0.80554   0.0000000000
C          C       0.38031   0.64803   0.74866   0.0000000000
N          N       0.37581   0.62148   0.72176   0.0000000000
C          C       0.33556   0.59272   0.71571   0.0000000000
C          C       0.40525   0.52305   0.71640   0.0000000000
C          C       0.47425   0.59207   0.71762   0.0000000000
C          C       0.40456   0.66174   0.71698   0.0000000000
H          H       0.31636   0.54083   0.58426   0.0000000000
H          H       0.35340   0.50380   0.58466   0.0000000000
H          H       0.45695   0.50340   0.84636   0.0000000000
H          H       0.49385   0.54034   0.84745   0.0000000000
H          H       0.49353   0.64397   0.58666   0.0000000000
H          H       0.45648   0.68100   0.58634   0.0000000000
H          H       0.35279   0.68136   0.84587   0.0000000000
H          H       0.31585   0.64446   0.84475   0.0000000000
C          C       0.50382   0.59206   0.71712   0.0000000000
C          C       0.51830   0.57143   0.63614   0.0000000000
C          C       0.51839   0.61265   0.79793   0.0000000000
C          C       0.54597   0.57140   0.63780   0.0000000000
H          H       0.50779   0.55555   0.56714   0.0000000000
C          C       0.54606   0.61255   0.79602   0.0000000000
H          H       0.50800   0.62858   0.86719   0.0000000000
C          C       0.56015   0.59196   0.71687   0.0000000000
H          H       0.55784   0.55585   0.57509   0.0000000000
H          H       0.55807   0.62801   0.85853   0.0000000000
B          B       0.58987   0.59204   0.71740   0.0000000000
O          O       0.60563   0.57161   0.65207   0.0000000000
O          O       0.60538   0.61261   0.78349   0.0000000000
C          C       0.63174   0.57965   0.67836   0.0000000000
C          C       0.63159   0.60479   0.75844   0.0000000000
C          C       0.65507   0.56595   0.63471   0.0000000000
C          C       0.65475   0.61870   0.80307   0.0000000000
C          C       0.67823   0.57986   0.67931   0.0000000000
H          H       0.65519   0.54647   0.57166   0.0000000000
C          C       0.67807   0.60501   0.75940   0.0000000000
H          H       0.65462   0.63819   0.86605   0.0000000000
O          O       0.70443   0.57206   0.65407   0.0000000000
O          O       0.70418   0.61306   0.78553   0.0000000000
B          B       0.71994   0.59264   0.72002   0.0000000000
C          C       0.74967   0.59275   0.72004   0.0000000000
C          C       0.76373   0.57219   0.64036   0.0000000000
C          C       0.76386   0.61330   0.79900   0.0000000000
C          C       0.79140   0.57213   0.63780   0.0000000000
H          H       0.75170   0.55675   0.57795   0.0000000000
C          C       0.79153   0.61330   0.80003   0.0000000000
H          H       0.75202   0.62883   0.86212   0.0000000000
C          C       0.80599   0.59271   0.71854   0.0000000000
H          H       0.80177   0.55623   0.56803   0.0000000000
H          H       0.80206   0.62918   0.86894   0.0000000000
C          C       0.40526   0.49348   0.71554   0.0000000000
C          C       0.38467   0.47888   0.79607   0.0000000000
C          C       0.42590   0.47903   0.63449   0.0000000000
C          C       0.38477   0.45121   0.79380   0.0000000000
H          H       0.36872   0.48925   0.86540   0.0000000000
C          C       0.42593   0.45135   0.63571   0.0000000000
H          H       0.44179   0.48956   0.56575   0.0000000000
C          C       0.40537   0.43715   0.71452   0.0000000000
H          H       0.36931   0.43918   0.85609   0.0000000000
H          H       0.44149   0.43951   0.57287   0.0000000000
B          B       0.40527   0.40743   0.71468   0.0000000000
O          O       0.38471   0.39191   0.78080   0.0000000000
O          O       0.42569   0.39167   0.64902   0.0000000000
C          C       0.39252   0.36571   0.75549   0.0000000000
C          C       0.41764   0.36556   0.67518   0.0000000000
C          C       0.37861   0.34254   0.80017   0.0000000000
C          C       0.43133   0.34224   0.63133   0.0000000000
C          C       0.39230   0.31922   0.75632   0.0000000000
H          H       0.35915   0.34266   0.86339   0.0000000000
C          C       0.41743   0.31908   0.67600   0.0000000000
H          H       0.45080   0.34212   0.56813   0.0000000000
O          O       0.38427   0.29311   0.78255   0.0000000000
O          O       0.42524   0.29287   0.65073   0.0000000000
B          B       0.40468   0.27736   0.71693   0.0000000000
C          C       0.40458   0.24763   0.71722   0.0000000000
C          C       0.38404   0.23347   0.79645   0.0000000000
C          C       0.42514   0.23354   0.63768   0.0000000000
C          C       0.38404   0.20579   0.79791   0.0000000000
H          H       0.36852   0.24534   0.85946   0.0000000000
C          C       0.42519   0.20587   0.63553   0.0000000000
H          H       0.44059   0.24554   0.57503   0.0000000000
C          C       0.40462   0.19130   0.71653   0.0000000000
H          H       0.36817   0.19529   0.86707   0.0000000000
H          H       0.44109   0.19547   0.56586   0.0000000000
C          C       0.30599   0.59270   0.71461   0.0000000000
C          C       0.29153   0.61330   0.63322   0.0000000000
C          C       0.29140   0.57212   0.79525   0.0000000000
C          C       0.26386   0.61331   0.63426   0.0000000000
H          H       0.30206   0.62919   0.56440   0.0000000000
C          C       0.26373   0.57218   0.79272   0.0000000000
H          H       0.30177   0.55620   0.86490   0.0000000000
C          C       0.24966   0.59275   0.71313   0.0000000000
H          H       0.25201   0.62884   0.57121   0.0000000000
H          H       0.25170   0.55673   0.85507   0.0000000000
B          B       0.21994   0.59264   0.71319   0.0000000000
O          O       0.20418   0.61307   0.64771   0.0000000000
O          O       0.20443   0.57206   0.77912   0.0000000000
C          C       0.17807   0.60502   0.67382   0.0000000000
C          C       0.17822   0.57987   0.75390   0.0000000000
C          C       0.15474   0.61871   0.63018   0.0000000000
C          C       0.15506   0.56596   0.79849   0.0000000000
C          C       0.13159   0.60480   0.67480   0.0000000000
H          H       0.15462   0.63820   0.56721   0.0000000000
C          C       0.13174   0.57966   0.75485   0.0000000000
H          H       0.15519   0.54648   0.86150   0.0000000000
O          O       0.10538   0.61262   0.64975   0.0000000000
O          O       0.10563   0.57161   0.78112   0.0000000000
B          B       0.08987   0.59205   0.71580   0.0000000000
C          C       0.06015   0.59196   0.71631   0.0000000000
C          C       0.04606   0.61256   0.63723   0.0000000000
C          C       0.04597   0.57140   0.79528   0.0000000000
C          C       0.01839   0.61266   0.63532   0.0000000000
H          H       0.05807   0.62803   0.57478   0.0000000000
C          C       0.01830   0.57143   0.79691   0.0000000000
H          H       0.05784   0.55584   0.85794   0.0000000000
C          C       0.00382   0.59206   0.71603   0.0000000000
H          H       0.00799   0.62860   0.56614   0.0000000000
H          H       0.00779   0.55553   0.86581   0.0000000000
C          C       0.40457   0.69130   0.71626   0.0000000000
C          C       0.42513   0.70588   0.79727   0.0000000000
C          C       0.38397   0.70578   0.63487   0.0000000000
C          C       0.42505   0.73355   0.79513   0.0000000000
H          H       0.44103   0.69549   0.86693   0.0000000000
C          C       0.38395   0.73345   0.63636   0.0000000000
H          H       0.36811   0.69526   0.56571   0.0000000000
C          C       0.40448   0.74763   0.71562   0.0000000000
H          H       0.44048   0.74557   0.85780   0.0000000000
H          H       0.36842   0.74531   0.57335   0.0000000000
B          B       0.40457   0.77735   0.71607   0.0000000000
O          O       0.42512   0.79286   0.78232   0.0000000000
O          O       0.38415   0.79311   0.65054   0.0000000000
C          C       0.41731   0.81907   0.75722   0.0000000000
C          C       0.39218   0.81922   0.67691   0.0000000000
C          C       0.43121   0.84223   0.80199   0.0000000000
C          C       0.37849   0.84255   0.63319   0.0000000000
C          C       0.41752   0.86556   0.75825   0.0000000000
H          H       0.45068   0.84211   0.86518   0.0000000000
C          C       0.39239   0.86571   0.67796   0.0000000000
H          H       0.35902   0.84267   0.56998   0.0000000000
O          O       0.42556   0.89167   0.78450   0.0000000000
O          O       0.38459   0.89191   0.65275   0.0000000000
B          B       0.40515   0.90742   0.71889   0.0000000000
C          C       0.40526   0.93715   0.71907   0.0000000000
C          C       0.42583   0.95133   0.79785   0.0000000000
C          C       0.38467   0.95122   0.63975   0.0000000000
C          C       0.42582   0.97901   0.79903   0.0000000000
H          H       0.44138   0.93949   0.86069   0.0000000000
C          C       0.38459   0.97889   0.63743   0.0000000000
H          H       0.36920   0.93919   0.57748   0.0000000000
C          C       0.40519   0.99348   0.71795   0.0000000000
H          H       0.44172   0.98953   0.86775   0.0000000000
H          H       0.36865   0.98927   0.56809   0.0000000000
C          C       0.83556   0.59273   0.71741   0.0000000000
C          C       0.84925   0.61698   0.68534   0.0000000000
C          C       0.84872   0.56811   0.74931   0.0000000000
C          C       0.83655   0.64160   0.62844   0.0000000000
N          N       0.87581   0.62148   0.71162   0.0000000000
C          C       0.83695   0.54376   0.80750   0.0000000000
N          N       0.87521   0.56269   0.72130   0.0000000000
C          C       0.85567   0.66072   0.62816   0.0000000000
H          H       0.81586   0.64449   0.58868   0.0000000000
C          C       0.88030   0.64804   0.68496   0.0000000000
C          C       0.85631   0.52439   0.80711   0.0000000000
H          H       0.81636   0.54082   0.84858   0.0000000000
C          C       0.88064   0.53619   0.74868   0.0000000000
H          H       0.85278   0.68140   0.58804   0.0000000000
C          C       0.90456   0.66174   0.71673   0.0000000000
H          H       0.85339   0.50378   0.84775   0.0000000000
C          C       0.90525   0.52305   0.71617   0.0000000000
C          C       0.92919   0.64859   0.74859   0.0000000000
C          C       0.92948   0.53676   0.68387   0.0000000000
C          C       0.95354   0.66038   0.80663   0.0000000000
N          N       0.93460   0.62210   0.72068   0.0000000000
C          C       0.95408   0.52410   0.62628   0.0000000000
N          N       0.93399   0.56332   0.71055   0.0000000000
C          C       0.97292   0.64102   0.80624   0.0000000000
H          H       0.95648   0.68097   0.84759   0.0000000000
C          C       0.96111   0.61668   0.74800   0.0000000000
C          C       0.97319   0.54322   0.62600   0.0000000000
H          H       0.95695   0.50343   0.58604   0.0000000000
C          C       0.96053   0.56783   0.68350   0.0000000000
H          H       0.99353   0.64395   0.84680   0.0000000000
C          C       0.97425   0.59207   0.71553   0.0000000000
H          H       0.99385   0.54036   0.58542   0.0000000000
C          C       0.40460   0.16174   0.71585   0.0000000000
C          C       0.42922   0.14858   0.74782   0.0000000000
C          C       0.38034   0.14804   0.68422   0.0000000000
C          C       0.45358   0.16037   0.80576   0.0000000000
N          N       0.43462   0.12208   0.72023   0.0000000000
C          C       0.35571   0.16072   0.62732   0.0000000000
N          N       0.37583   0.12149   0.71121   0.0000000000
C          C       0.47294   0.14100   0.80568   0.0000000000
H          H       0.45653   0.18098   0.84645   0.0000000000
C          C       0.46113   0.11665   0.74767   0.0000000000
C          C       0.33658   0.14161   0.62793   0.0000000000
H          H       0.35283   0.18138   0.58693   0.0000000000
C          C       0.34926   0.11700   0.68507   0.0000000000
H          H       0.49355   0.14392   0.84630   0.0000000000
C          C       0.47425   0.09203   0.71546   0.0000000000
H          H       0.31588   0.14451   0.58827   0.0000000000
C          C       0.33556   0.09276   0.71740   0.0000000000
C          C       0.46052   0.06778   0.68371   0.0000000000
C          C       0.34871   0.06815   0.74955   0.0000000000
C          C       0.47316   0.04316   0.62645   0.0000000000
N          N       0.43397   0.06329   0.71089   0.0000000000
C          C       0.33692   0.04381   0.80800   0.0000000000
N          N       0.37520   0.06271   0.72166   0.0000000000
C          C       0.45404   0.02404   0.62707   0.0000000000
H          H       0.49381   0.04028   0.58578   0.0000000000
C          C       0.42945   0.03673   0.68455   0.0000000000
C          C       0.35628   0.02444   0.80790   0.0000000000
H          H       0.31632   0.04090   0.84900   0.0000000000
C          C       0.38061   0.03621   0.74939   0.0000000000
H          H       0.45690   0.00335   0.58714   0.0000000000
C          C       0.40521   0.02305   0.71700   0.0000000000
H          H       0.35334   0.00384   0.84885   0.0000000000
C          C       0.90526   0.49348   0.71685   0.0000000000
C          C       0.88467   0.47889   0.63621   0.0000000000
C          C       0.92590   0.47902   0.79781   0.0000000000
C          C       0.88478   0.45122   0.63827   0.0000000000
H          H       0.86872   0.48927   0.56698   0.0000000000
C          C       0.92594   0.45134   0.79636   0.0000000000
H          H       0.94179   0.48954   0.86664   0.0000000000
C          C       0.90538   0.43715   0.71744   0.0000000000
H          H       0.86932   0.43919   0.57590   0.0000000000
H          H       0.94150   0.43950   0.85912   0.0000000000
B          B       0.90529   0.40743   0.71705   0.0000000000
O          O       0.88472   0.39192   0.65085   0.0000000000
O          O       0.92570   0.39166   0.78262   0.0000000000
C          C       0.89252   0.36572   0.67603   0.0000000000
C          C       0.91765   0.36556   0.75632   0.0000000000
C          C       0.87862   0.34256   0.63130   0.0000000000
C          C       0.93133   0.34222   0.80011   0.0000000000
C          C       0.89230   0.31923   0.67508   0.0000000000
H          H       0.85915   0.34269   0.56809   0.0000000000
C          C       0.91742   0.31907   0.75539   0.0000000000
H          H       0.95080   0.34210   0.86332   0.0000000000
O          O       0.88425   0.29312   0.64885   0.0000000000
O          O       0.92522   0.29286   0.78066   0.0000000000
B          B       0.90465   0.27736   0.71450   0.0000000000
C          C       0.90454   0.24763   0.71435   0.0000000000
C          C       0.88399   0.23345   0.63525   0.0000000000
C          C       0.92509   0.23355   0.79400   0.0000000000
C          C       0.88399   0.20578   0.63404   0.0000000000
H          H       0.86847   0.24531   0.57212   0.0000000000
C          C       0.92515   0.20589   0.79643   0.0000000000
H          H       0.94054   0.24558   0.85655   0.0000000000
C          C       0.90458   0.19131   0.71553   0.0000000000
H          H       0.86813   0.19526   0.56500   0.0000000000
H          H       0.94104   0.19550   0.86619   0.0000000000
C          C       0.90458   0.69131   0.71767   0.0000000000
C          C       0.88399   0.70578   0.79916   0.0000000000
C          C       0.92515   0.70589   0.63677   0.0000000000
C          C       0.88399   0.73345   0.79795   0.0000000000
H          H       0.86813   0.69526   0.86819   0.0000000000
C          C       0.92509   0.73356   0.63919   0.0000000000
H          H       0.94104   0.69551   0.56702   0.0000000000
C          C       0.90454   0.74763   0.71885   0.0000000000
H          H       0.86847   0.74531   0.86107   0.0000000000
H          H       0.94053   0.74558   0.57664   0.0000000000
B          B       0.90465   0.77736   0.71869   0.0000000000
O          O       0.88424   0.79312   0.78434   0.0000000000
O          O       0.92522   0.79286   0.65255   0.0000000000
C          C       0.89229   0.81923   0.75812   0.0000000000
C          C       0.91742   0.81907   0.67782   0.0000000000
C          C       0.87861   0.84256   0.80191   0.0000000000
C          C       0.93133   0.84223   0.63311   0.0000000000
C          C       0.89252   0.86572   0.75718   0.0000000000
H          H       0.85914   0.84268   0.86511   0.0000000000
C          C       0.91765   0.86556   0.67689   0.0000000000
H          H       0.95080   0.84210   0.56990   0.0000000000
O          O       0.88472   0.89192   0.78236   0.0000000000
O          O       0.92569   0.89167   0.65061   0.0000000000
B          B       0.90528   0.90743   0.71616   0.0000000000
C          C       0.90537   0.93715   0.71577   0.0000000000
C          C       0.88477   0.95122   0.79494   0.0000000000
C          C       0.92593   0.95134   0.63685   0.0000000000
C          C       0.88466   0.97889   0.79699   0.0000000000
H          H       0.86931   0.93919   0.85731   0.0000000000
C          C       0.92589   0.97902   0.63540   0.0000000000
H          H       0.94149   0.93950   0.57409   0.0000000000
C          C       0.90525   0.99348   0.71636   0.0000000000
H          H       0.86871   0.98927   0.86622   0.0000000000
H          H       0.94178   0.98954   0.56657   0.0000000000
C          C       0.90456   0.16174   0.71645   0.0000000000
C          C       0.88030   0.14804   0.74823   0.0000000000
C          C       0.92919   0.14859   0.68461   0.0000000000
C          C       0.85567   0.16072   0.80504   0.0000000000
N          N       0.87581   0.12149   0.72157   0.0000000000
C          C       0.95354   0.16038   0.62658   0.0000000000
N          N       0.93460   0.12210   0.71250   0.0000000000
C          C       0.83655   0.14160   0.80476   0.0000000000
H          H       0.85279   0.18140   0.84516   0.0000000000
C          C       0.84924   0.11699   0.74785   0.0000000000
C          C       0.97291   0.14102   0.62698   0.0000000000
H          H       0.95648   0.18097   0.58561   0.0000000000
C          C       0.96111   0.11668   0.68521   0.0000000000
H          H       0.81586   0.14449   0.84452   0.0000000000
C          C       0.83556   0.09273   0.71578   0.0000000000
H          H       0.99353   0.14395   0.58643   0.0000000000
C          C       0.97425   0.09207   0.71768   0.0000000000
C          C       0.84872   0.06811   0.68390   0.0000000000
C          C       0.96053   0.06783   0.74969   0.0000000000
C          C       0.83694   0.04376   0.62569   0.0000000000
N          N       0.87521   0.06270   0.71191   0.0000000000
C          C       0.97318   0.04322   0.80721   0.0000000000
N          N       0.93398   0.06332   0.72266   0.0000000000
C          C       0.85630   0.02439   0.62611   0.0000000000
H          H       0.81635   0.04083   0.58463   0.0000000000
C          C       0.88063   0.03619   0.68452   0.0000000000
C          C       0.95407   0.02410   0.80693   0.0000000000
H          H       0.99384   0.04036   0.84778   0.0000000000
C          C       0.92948   0.03676   0.74934   0.0000000000
H          H       0.85338   0.00378   0.58546   0.0000000000
C          C       0.90524   0.02305   0.71704   0.0000000000
H          H       0.95694   0.00343   0.84717   0.0000000000
C          C       0.50382   0.09201   0.71596   0.0000000000
C          C       0.51829   0.07138   0.79699   0.0000000000
C          C       0.51840   0.11258   0.63511   0.0000000000
C          C       0.54596   0.07134   0.79537   0.0000000000
H          H       0.50777   0.05550   0.86602   0.0000000000
C          C       0.54606   0.11248   0.63708   0.0000000000
H          H       0.50801   0.12852   0.56580   0.0000000000
C          C       0.56014   0.09189   0.71628   0.0000000000
H          H       0.55781   0.05578   0.85814   0.0000000000
H          H       0.55808   0.12793   0.57457   0.0000000000
B          B       0.58987   0.09198   0.71578   0.0000000000
O          O       0.60563   0.07155   0.78113   0.0000000000
O          O       0.60537   0.11255   0.64969   0.0000000000
C          C       0.63174   0.07961   0.75485   0.0000000000
C          C       0.63158   0.10475   0.67476   0.0000000000
C          C       0.65507   0.06592   0.79850   0.0000000000
C          C       0.65473   0.11867   0.63014   0.0000000000
C          C       0.67823   0.07984   0.75391   0.0000000000
H          H       0.65520   0.04644   0.86155   0.0000000000
C          C       0.67806   0.10498   0.67381   0.0000000000
H          H       0.65460   0.13816   0.56714   0.0000000000
O          O       0.70443   0.07205   0.77914   0.0000000000
O          O       0.70417   0.11305   0.64768   0.0000000000
B          B       0.71994   0.09263   0.71321   0.0000000000
C          C       0.74966   0.09276   0.71316   0.0000000000
C          C       0.76373   0.07220   0.79284   0.0000000000
C          C       0.76385   0.11331   0.63421   0.0000000000
C          C       0.79139   0.07213   0.79541   0.0000000000
H          H       0.75169   0.05675   0.85525   0.0000000000
C          C       0.79153   0.11330   0.63317   0.0000000000
H          H       0.75201   0.12884   0.57108   0.0000000000
C          C       0.80599   0.09271   0.71467   0.0000000000
H          H       0.80177   0.05623   0.86518   0.0000000000
H          H       0.80206   0.12918   0.56427   0.0000000000
C          C       0.30599   0.09276   0.71853   0.0000000000
C          C       0.29138   0.07217   0.63793   0.0000000000
C          C       0.29154   0.11337   0.79987   0.0000000000
C          C       0.26372   0.07225   0.64050   0.0000000000
H          H       0.30175   0.05625   0.56829   0.0000000000
C          C       0.26386   0.11338   0.79889   0.0000000000
H          H       0.30207   0.12925   0.86863   0.0000000000
C          C       0.24966   0.09282   0.72007   0.0000000000
H          H       0.25168   0.05680   0.57819   0.0000000000
H          H       0.25203   0.12892   0.86194   0.0000000000
B          B       0.21994   0.09270   0.72003   0.0000000000
O          O       0.20443   0.07212   0.65412   0.0000000000
O          O       0.20417   0.11312   0.78552   0.0000000000
C          C       0.17823   0.07991   0.67935   0.0000000000
C          C       0.17806   0.10506   0.75941   0.0000000000
C          C       0.15507   0.06599   0.63476   0.0000000000
C          C       0.15473   0.11875   0.80305   0.0000000000
C          C       0.13174   0.07968   0.67840   0.0000000000
H          H       0.15520   0.04651   0.57175   0.0000000000
C          C       0.13158   0.10483   0.75845   0.0000000000
H          H       0.15460   0.13823   0.86603   0.0000000000
O          O       0.10563   0.07163   0.65212   0.0000000000
O          O       0.10537   0.11263   0.78350   0.0000000000
B          B       0.08987   0.09205   0.71744   0.0000000000
C          C       0.06014   0.09196   0.71691   0.0000000000
C          C       0.04597   0.07140   0.63794   0.0000000000
C          C       0.04606   0.11256   0.79598   0.0000000000
C          C       0.01830   0.07142   0.63631   0.0000000000
H          H       0.05783   0.05584   0.57528   0.0000000000
C          C       0.01839   0.11265   0.79790   0.0000000000
H          H       0.05807   0.12802   0.85841   0.0000000000
C          C       0.00382   0.09206   0.71718   0.0000000000
H          H       0.00779   0.05553   0.56741   0.0000000000
H          H       0.00799   0.12860   0.86707   0.0000000000
H          H       0.42089   0.60838   0.75648   0.0000000000
H          H       0.38892   0.57641   0.75567   0.0000000000
H          H       0.92088   0.60839   0.67681   0.0000000000
H          H       0.88892   0.57642   0.67730   0.0000000000
H          H       0.42089   0.10837   0.67649   0.0000000000
H          H       0.38891   0.07641   0.67753   0.0000000000
H          H       0.92088   0.10839   0.75637   0.0000000000
H          H       0.88891   0.07642   0.75591   0.0000000000
