data_crystal
 
_cell_length_a    50.30000
_cell_length_b    50.30000
_cell_length_c    7.80000
_cell_angle_alpha 90.00000
_cell_angle_beta  90.00000
_cell_angle_gamma 90.00000
 
_symmetry_space_group_name_Hall 'P 1'
_symmetry_space_group_name_H-M  'P 1'
 
loop_
_symmetry_equiv_pos_as_xyz
 'x,y,z' 
 
loop_
_atom_site_label
_atom_site_type_symbol
_atom_site_fract_x
_atom_site_fract_y
_atom_site_fract_z
_atom_site_charge
C          C       0.47541   0.63820   0.13486   0.0000000000
C          C       0.45603   0.65757   0.13473   0.0000000000
C          C       0.46336   0.61413   0.19246   0.0000000000
C          C       0.43196   0.64553   0.19223   0.0000000000
N          N       0.43615   0.61832   0.21699   0.0000000000
C          C       0.46345   0.56737   0.27985   0.0000000000
C          C       0.47554   0.54304   0.33695   0.0000000000
C          C       0.45633   0.52381   0.33649   0.0000000000
C          C       0.43202   0.53591   0.27921   0.0000000000
N          N       0.43615   0.56322   0.25699   0.0000000000
C          C       0.38528   0.53602   0.19130   0.0000000000
C          C       0.36123   0.52398   0.13325   0.0000000000
C          C       0.34185   0.54336   0.13309   0.0000000000
C          C       0.35387   0.56742   0.19104   0.0000000000
N          N       0.38107   0.56323   0.21612   0.0000000000
C          C       0.35372   0.61418   0.27845   0.0000000000
C          C       0.34159   0.63851   0.33530   0.0000000000
C          C       0.36082   0.65773   0.33578   0.0000000000
C          C       0.38517   0.64563   0.27912   0.0000000000
N          N       0.38104   0.61832   0.25649   0.0000000000
Cu         Cu      0.40860   0.59077   0.23718   0.0000000000
C          C       0.33973   0.59092   0.23487   0.0000000000
C          C       0.40878   0.52190   0.23549   0.0000000000
C          C       0.47747   0.59062   0.23659   0.0000000000
C          C       0.40843   0.65964   0.23604   0.0000000000
H          H       0.32106   0.54047   0.09663   0.0000000000
H          H       0.35835   0.50319   0.09693   0.0000000000
H          H       0.45922   0.50299   0.37244   0.0000000000
H          H       0.49634   0.54016   0.37346   0.0000000000
H          H       0.49622   0.64109   0.09885   0.0000000000
H          H       0.45893   0.67837   0.09858   0.0000000000
H          H       0.35792   0.67854   0.37200   0.0000000000
H          H       0.32076   0.64140   0.37091   0.0000000000
C          C       0.50714   0.59069   0.23706   0.0000000000
C          C       0.52179   0.56982   0.15995   0.0000000000
C          C       0.52172   0.61162   0.31408   0.0000000000
C          C       0.54948   0.56996   0.16126   0.0000000000
H          H       0.51143   0.55353   0.09407   0.0000000000
C          C       0.54941   0.61156   0.31323   0.0000000000
H          H       0.51129   0.62793   0.37938   0.0000000000
C          C       0.56370   0.59076   0.23740   0.0000000000
H          H       0.56135   0.55419   0.10076   0.0000000000
H          H       0.56120   0.62737   0.37377   0.0000000000
B          B       0.59344   0.59076   0.23752   0.0000000000
O          O       0.60911   0.57020   0.17263   0.0000000000
O          O       0.60913   0.61129   0.30253   0.0000000000
C          C       0.63531   0.57813   0.19798   0.0000000000
C          C       0.63532   0.60333   0.27725   0.0000000000
C          C       0.65859   0.56430   0.15431   0.0000000000
C          C       0.65862   0.61713   0.32086   0.0000000000
C          C       0.68188   0.57811   0.19787   0.0000000000
H          H       0.65858   0.54477   0.09187   0.0000000000
C          C       0.68189   0.60331   0.27716   0.0000000000
H          H       0.65863   0.63666   0.38323   0.0000000000
O          O       0.70806   0.57016   0.17240   0.0000000000
O          O       0.70809   0.61124   0.30234   0.0000000000
B          B       0.72376   0.59070   0.23725   0.0000000000
C          C       0.75351   0.59072   0.23690   0.0000000000
C          C       0.76778   0.56997   0.16053   0.0000000000
C          C       0.76773   0.61153   0.31299   0.0000000000
C          C       0.79547   0.56993   0.15910   0.0000000000
H          H       0.75597   0.55416   0.09998   0.0000000000
C          C       0.79542   0.61169   0.31377   0.0000000000
H          H       0.75588   0.62727   0.37387   0.0000000000
C          C       0.81006   0.59085   0.23614   0.0000000000
H          H       0.80588   0.55366   0.09330   0.0000000000
H          H       0.80579   0.62798   0.37963   0.0000000000
C          C       0.40871   0.49223   0.23561   0.0000000000
C          C       0.38777   0.47763   0.31228   0.0000000000
C          C       0.42959   0.47760   0.15845   0.0000000000
C          C       0.38784   0.44994   0.31107   0.0000000000
H          H       0.37144   0.48803   0.37761   0.0000000000
C          C       0.42946   0.44991   0.15935   0.0000000000
H          H       0.44590   0.48798   0.09287   0.0000000000
C          C       0.40864   0.43567   0.23517   0.0000000000
H          H       0.37202   0.43812   0.37136   0.0000000000
H          H       0.44524   0.43807   0.09880   0.0000000000
B          B       0.40864   0.40593   0.23495   0.0000000000
O          O       0.38810   0.39024   0.29982   0.0000000000
O          O       0.42918   0.39026   0.16994   0.0000000000
C          C       0.39604   0.36405   0.27440   0.0000000000
C          C       0.42124   0.36406   0.19514   0.0000000000
C          C       0.38223   0.34076   0.31795   0.0000000000
C          C       0.43506   0.34078   0.15144   0.0000000000
C          C       0.39604   0.31748   0.27426   0.0000000000
H          H       0.36270   0.34076   0.38036   0.0000000000
C          C       0.42125   0.31749   0.19499   0.0000000000
H          H       0.45459   0.34078   0.08904   0.0000000000
O          O       0.38811   0.29129   0.29957   0.0000000000
O          O       0.42919   0.29130   0.16966   0.0000000000
B          B       0.40865   0.27561   0.23462   0.0000000000
C          C       0.40866   0.24586   0.23473   0.0000000000
C          C       0.38789   0.23160   0.31101   0.0000000000
C          C       0.42945   0.23163   0.15852   0.0000000000
C          C       0.38782   0.20391   0.31228   0.0000000000
H          H       0.37210   0.24342   0.37161   0.0000000000
C          C       0.42957   0.20394   0.15757   0.0000000000
H          H       0.44520   0.24347   0.09768   0.0000000000
C          C       0.40873   0.18931   0.23517   0.0000000000
H          H       0.37154   0.19351   0.37804   0.0000000000
H          H       0.44585   0.19356   0.09159   0.0000000000
C          C       0.31006   0.59083   0.23477   0.0000000000
C          C       0.29543   0.61167   0.15723   0.0000000000
C          C       0.29547   0.56990   0.31167   0.0000000000
C          C       0.26774   0.61152   0.15796   0.0000000000
H          H       0.30580   0.62797   0.09149   0.0000000000
C          C       0.26778   0.56994   0.31023   0.0000000000
H          H       0.30587   0.55361   0.37736   0.0000000000
C          C       0.25351   0.59070   0.23396   0.0000000000
H          H       0.25589   0.62726   0.09713   0.0000000000
H          H       0.25597   0.55413   0.37067   0.0000000000
B          B       0.22376   0.59069   0.23364   0.0000000000
O          O       0.20809   0.61124   0.16859   0.0000000000
O          O       0.20806   0.57015   0.29849   0.0000000000
C          C       0.18189   0.60330   0.19378   0.0000000000
C          C       0.18188   0.57810   0.27304   0.0000000000
C          C       0.15862   0.61713   0.15011   0.0000000000
C          C       0.15859   0.56430   0.31661   0.0000000000
C          C       0.13533   0.60332   0.19369   0.0000000000
H          H       0.15863   0.63666   0.08773   0.0000000000
C          C       0.13531   0.57812   0.27293   0.0000000000
H          H       0.15858   0.54476   0.37900   0.0000000000
O          O       0.10914   0.61128   0.16840   0.0000000000
O          O       0.10911   0.57019   0.29825   0.0000000000
B          B       0.09344   0.59075   0.23335   0.0000000000
C          C       0.06370   0.59075   0.23345   0.0000000000
C          C       0.04940   0.61155   0.15771   0.0000000000
C          C       0.04949   0.56993   0.30950   0.0000000000
C          C       0.02172   0.61162   0.15690   0.0000000000
H          H       0.06120   0.62737   0.09721   0.0000000000
C          C       0.02179   0.56980   0.31082   0.0000000000
H          H       0.06136   0.55416   0.36990   0.0000000000
C          C       0.00714   0.59068   0.23384   0.0000000000
H          H       0.01129   0.62794   0.09168   0.0000000000
H          H       0.01144   0.55349   0.37662   0.0000000000
C          C       0.40851   0.68931   0.23632   0.0000000000
C          C       0.42942   0.70389   0.31352   0.0000000000
C          C       0.38768   0.70396   0.15882   0.0000000000
C          C       0.42937   0.73158   0.31244   0.0000000000
H          H       0.44570   0.69347   0.37918   0.0000000000
C          C       0.38781   0.73165   0.15996   0.0000000000
H          H       0.37139   0.69360   0.09278   0.0000000000
C          C       0.40861   0.74587   0.23626   0.0000000000
H          H       0.44517   0.74338   0.37312   0.0000000000
H          H       0.37207   0.74351   0.09921   0.0000000000
B          B       0.40861   0.77561   0.23628   0.0000000000
O          O       0.42914   0.79130   0.30130   0.0000000000
O          O       0.38806   0.79129   0.17137   0.0000000000
C          C       0.42119   0.81749   0.27603   0.0000000000
C          C       0.39599   0.81748   0.19676   0.0000000000
C          C       0.43500   0.84077   0.31967   0.0000000000
C          C       0.38217   0.84077   0.15314   0.0000000000
C          C       0.42118   0.86405   0.27604   0.0000000000
H          H       0.45453   0.84077   0.38205   0.0000000000
C          C       0.39598   0.86405   0.19678   0.0000000000
H          H       0.36264   0.84077   0.09073   0.0000000000
O          O       0.42912   0.89025   0.30135   0.0000000000
O          O       0.38804   0.89025   0.17146   0.0000000000
B          B       0.40858   0.90593   0.23639   0.0000000000
C          C       0.40858   0.93568   0.23639   0.0000000000
C          C       0.42938   0.94996   0.31218   0.0000000000
C          C       0.38775   0.94989   0.16048   0.0000000000
C          C       0.42943   0.97765   0.31319   0.0000000000
H          H       0.44520   0.93816   0.37257   0.0000000000
C          C       0.38761   0.97758   0.15939   0.0000000000
H          H       0.37198   0.93803   0.10004   0.0000000000
C          C       0.40848   0.99224   0.23643   0.0000000000
H          H       0.44575   0.98807   0.37848   0.0000000000
H          H       0.37129   0.98794   0.09377   0.0000000000
C          C       0.83973   0.59094   0.23605   0.0000000000
C          C       0.85372   0.61420   0.19261   0.0000000000
C          C       0.85387   0.56742   0.27969   0.0000000000
C          C       0.84159   0.63853   0.13589   0.0000000000
N          N       0.88104   0.61834   0.21463   0.0000000000
C          C       0.84185   0.54335   0.33743   0.0000000000
N          N       0.88107   0.56323   0.25454   0.0000000000
C          C       0.86082   0.65776   0.13561   0.0000000000
H          H       0.82076   0.64143   0.10029   0.0000000000
C          C       0.88517   0.64565   0.19222   0.0000000000
C          C       0.86122   0.52398   0.33705   0.0000000000
H          H       0.82106   0.54046   0.37400   0.0000000000
C          C       0.88527   0.53602   0.27912   0.0000000000
H          H       0.85792   0.67858   0.09966   0.0000000000
C          C       0.90843   0.65965   0.23543   0.0000000000
H          H       0.85834   0.50317   0.37321   0.0000000000
C          C       0.90877   0.52190   0.23487   0.0000000000
C          C       0.93196   0.64552   0.27909   0.0000000000
C          C       0.93201   0.53592   0.19121   0.0000000000
C          C       0.95603   0.65755   0.33664   0.0000000000
N          N       0.93614   0.61832   0.25409   0.0000000000
C          C       0.95632   0.52383   0.13382   0.0000000000
N          N       0.93615   0.56323   0.21366   0.0000000000
C          C       0.97541   0.63818   0.33628   0.0000000000
H          H       0.95893   0.67835   0.37306   0.0000000000
C          C       0.96336   0.61412   0.27855   0.0000000000
C          C       0.97554   0.54306   0.13357   0.0000000000
H          H       0.95920   0.50301   0.09772   0.0000000000
C          C       0.96345   0.56737   0.19087   0.0000000000
H          H       0.99622   0.64107   0.37234   0.0000000000
C          C       0.97747   0.59062   0.23432   0.0000000000
H          H       0.99634   0.54018   0.09717   0.0000000000
Cu         Cu      0.90860   0.59078   0.23369   0.0000000000
C          C       0.40879   0.15965   0.23511   0.0000000000
C          C       0.43205   0.14563   0.27837   0.0000000000
C          C       0.38526   0.14553   0.19153   0.0000000000
C          C       0.45639   0.15773   0.33505   0.0000000000
N          N       0.43617   0.11832   0.25607   0.0000000000
C          C       0.36119   0.15757   0.13404   0.0000000000
N          N       0.38106   0.11833   0.21662   0.0000000000
C          C       0.47561   0.13849   0.33498   0.0000000000
H          H       0.45930   0.17855   0.37093   0.0000000000
C          C       0.46348   0.11417   0.27825   0.0000000000
C          C       0.34179   0.13821   0.13462   0.0000000000
H          H       0.35830   0.17836   0.09754   0.0000000000
C          C       0.35384   0.11415   0.19234   0.0000000000
H          H       0.49644   0.14138   0.37081   0.0000000000
C          C       0.47747   0.09091   0.23473   0.0000000000
H          H       0.32098   0.14111   0.09881   0.0000000000
C          C       0.33973   0.09064   0.23652   0.0000000000
C          C       0.46333   0.06740   0.19100   0.0000000000
C          C       0.35374   0.06739   0.27986   0.0000000000
C          C       0.47534   0.04333   0.13317   0.0000000000
N          N       0.43612   0.06322   0.21627   0.0000000000
C          C       0.34164   0.04307   0.33708   0.0000000000
N          N       0.38105   0.06324   0.25718   0.0000000000
C          C       0.45596   0.02395   0.13372   0.0000000000
H          H       0.49611   0.04043   0.09641   0.0000000000
C          C       0.43192   0.03601   0.19178   0.0000000000
C          C       0.36087   0.02384   0.33700   0.0000000000
H          H       0.32083   0.04020   0.37332   0.0000000000
C          C       0.38518   0.03593   0.27970   0.0000000000
H          H       0.45884   0.00315   0.09764   0.0000000000
C          C       0.40842   0.02190   0.23612   0.0000000000
H          H       0.35798   0.00303   0.37319   0.0000000000
Cu         Cu      0.40860   0.09077   0.23706   0.0000000000
C          C       0.90872   0.49224   0.23457   0.0000000000
C          C       0.88778   0.47765   0.15774   0.0000000000
C          C       0.92961   0.47760   0.31159   0.0000000000
C          C       0.88786   0.44996   0.15871   0.0000000000
H          H       0.87146   0.48806   0.09252   0.0000000000
C          C       0.92949   0.44991   0.31045   0.0000000000
H          H       0.94592   0.48797   0.37727   0.0000000000
C          C       0.90867   0.43568   0.23450   0.0000000000
H          H       0.87204   0.43815   0.09831   0.0000000000
H          H       0.94526   0.43805   0.37089   0.0000000000
B          B       0.90867   0.40594   0.23452   0.0000000000
O          O       0.88812   0.39025   0.16961   0.0000000000
O          O       0.92921   0.39026   0.29948   0.0000000000
C          C       0.89607   0.36405   0.19495   0.0000000000
C          C       0.92127   0.36406   0.27420   0.0000000000
C          C       0.88226   0.34077   0.15135   0.0000000000
C          C       0.93509   0.34078   0.31787   0.0000000000
C          C       0.89607   0.31749   0.19503   0.0000000000
H          H       0.86272   0.34077   0.08896   0.0000000000
C          C       0.92128   0.31749   0.27430   0.0000000000
H          H       0.95462   0.34078   0.38028   0.0000000000
O          O       0.88813   0.29129   0.16981   0.0000000000
O          O       0.92921   0.29130   0.29973   0.0000000000
B          B       0.90867   0.27561   0.23486   0.0000000000
C          C       0.90865   0.24587   0.23509   0.0000000000
C          C       0.88784   0.23166   0.15890   0.0000000000
C          C       0.92940   0.23158   0.31139   0.0000000000
C          C       0.88769   0.20396   0.15796   0.0000000000
H          H       0.87211   0.24352   0.09807   0.0000000000
C          C       0.92943   0.20389   0.31268   0.0000000000
H          H       0.94521   0.24338   0.37200   0.0000000000
C          C       0.90851   0.18931   0.23555   0.0000000000
H          H       0.87139   0.19360   0.09201   0.0000000000
H          H       0.94570   0.19347   0.37848   0.0000000000
C          C       0.90851   0.68931   0.23532   0.0000000000
C          C       0.88768   0.70396   0.31290   0.0000000000
C          C       0.92943   0.70389   0.15819   0.0000000000
C          C       0.88784   0.73166   0.31196   0.0000000000
H          H       0.87139   0.69361   0.37884   0.0000000000
C          C       0.92940   0.73159   0.15948   0.0000000000
H          H       0.94570   0.69347   0.09241   0.0000000000
C          C       0.90865   0.74587   0.23578   0.0000000000
H          H       0.87211   0.74352   0.37279   0.0000000000
H          H       0.94521   0.74338   0.09886   0.0000000000
B          B       0.90867   0.77561   0.23602   0.0000000000
O          O       0.88813   0.79129   0.30107   0.0000000000
O          O       0.92921   0.79131   0.17114   0.0000000000
C          C       0.89607   0.81749   0.27585   0.0000000000
C          C       0.92127   0.81750   0.19658   0.0000000000
C          C       0.88225   0.84077   0.31953   0.0000000000
C          C       0.93508   0.84078   0.15300   0.0000000000
C          C       0.89606   0.86405   0.27592   0.0000000000
H          H       0.86272   0.84076   0.38191   0.0000000000
C          C       0.92127   0.86406   0.19667   0.0000000000
H          H       0.95461   0.84079   0.09059   0.0000000000
O          O       0.88812   0.89025   0.30128   0.0000000000
O          O       0.92920   0.89026   0.17141   0.0000000000
B          B       0.90866   0.90594   0.23636   0.0000000000
C          C       0.90866   0.93568   0.23639   0.0000000000
C          C       0.88785   0.94996   0.31217   0.0000000000
C          C       0.92948   0.94991   0.16044   0.0000000000
C          C       0.88777   0.97765   0.31314   0.0000000000
H          H       0.87203   0.93815   0.37257   0.0000000000
C          C       0.92960   0.97760   0.15929   0.0000000000
H          H       0.94525   0.93805   0.09999   0.0000000000
C          C       0.90871   0.99224   0.23634   0.0000000000
H          H       0.87145   0.98806   0.37837   0.0000000000
H          H       0.94591   0.98797   0.09361   0.0000000000
C          C       0.90843   0.15965   0.23545   0.0000000000
C          C       0.88516   0.14565   0.27865   0.0000000000
C          C       0.93195   0.14552   0.19178   0.0000000000
C          C       0.86082   0.15776   0.33526   0.0000000000
N          N       0.88103   0.11834   0.25625   0.0000000000
C          C       0.95603   0.15755   0.13423   0.0000000000
N          N       0.93614   0.11832   0.21677   0.0000000000
C          C       0.84159   0.13854   0.33498   0.0000000000
H          H       0.85792   0.17858   0.37121   0.0000000000
C          C       0.85372   0.11420   0.27827   0.0000000000
C          C       0.97541   0.13818   0.13459   0.0000000000
H          H       0.95892   0.17834   0.09781   0.0000000000
C          C       0.96336   0.11412   0.19232   0.0000000000
H          H       0.82076   0.14144   0.37058   0.0000000000
C          C       0.83972   0.09094   0.23482   0.0000000000
H          H       0.99621   0.14107   0.09855   0.0000000000
C          C       0.97747   0.09062   0.23658   0.0000000000
C          C       0.85386   0.06742   0.19118   0.0000000000
C          C       0.96345   0.06737   0.28002   0.0000000000
C          C       0.84184   0.04336   0.13343   0.0000000000
N          N       0.88107   0.06323   0.21632   0.0000000000
C          C       0.97554   0.04306   0.33732   0.0000000000
N          N       0.93614   0.06323   0.25722   0.0000000000
C          C       0.86122   0.02398   0.13382   0.0000000000
H          H       0.82106   0.04046   0.09687   0.0000000000
C          C       0.88527   0.03602   0.19176   0.0000000000
C          C       0.95631   0.02383   0.33707   0.0000000000
H          H       0.99634   0.04018   0.37374   0.0000000000
C          C       0.93201   0.03592   0.27967   0.0000000000
H          H       0.85834   0.00317   0.09767   0.0000000000
C          C       0.90877   0.02190   0.23602   0.0000000000
H          H       0.95920   0.00301   0.37318   0.0000000000
C          C       0.50713   0.09080   0.23463   0.0000000000
C          C       0.52172   0.06986   0.31141   0.0000000000
C          C       0.52178   0.11165   0.15721   0.0000000000
C          C       0.54941   0.06989   0.30999   0.0000000000
H          H       0.51131   0.05357   0.37704   0.0000000000
C          C       0.54947   0.11149   0.15795   0.0000000000
H          H       0.51141   0.12797   0.09154   0.0000000000
C          C       0.56369   0.09066   0.23384   0.0000000000
H          H       0.56122   0.05406   0.37037   0.0000000000
H          H       0.56133   0.12723   0.09723   0.0000000000
B          B       0.59343   0.09064   0.23354   0.0000000000
O          O       0.60913   0.07010   0.29841   0.0000000000
O          O       0.60911   0.11118   0.16848   0.0000000000
C          C       0.63532   0.07805   0.27298   0.0000000000
C          C       0.63531   0.10325   0.19370   0.0000000000
C          C       0.65861   0.06424   0.31662   0.0000000000
C          C       0.65859   0.11707   0.15005   0.0000000000
C          C       0.68188   0.07806   0.27300   0.0000000000
H          H       0.65862   0.04471   0.37905   0.0000000000
C          C       0.68188   0.10327   0.19370   0.0000000000
H          H       0.65858   0.13660   0.08767   0.0000000000
O          O       0.70808   0.07014   0.29845   0.0000000000
O          O       0.70807   0.11122   0.16850   0.0000000000
B          B       0.72376   0.09069   0.23359   0.0000000000
C          C       0.75350   0.09072   0.23394   0.0000000000
C          C       0.76778   0.06997   0.31032   0.0000000000
C          C       0.76773   0.11153   0.15785   0.0000000000
C          C       0.79547   0.06993   0.31177   0.0000000000
H          H       0.75597   0.05416   0.37085   0.0000000000
C          C       0.79542   0.11169   0.15709   0.0000000000
H          H       0.75588   0.12727   0.09693   0.0000000000
C          C       0.81006   0.09085   0.23475   0.0000000000
H          H       0.80588   0.05366   0.37759   0.0000000000
H          H       0.80579   0.12798   0.09125   0.0000000000
C          C       0.31006   0.09072   0.23699   0.0000000000
C          C       0.29540   0.06986   0.15976   0.0000000000
C          C       0.29549   0.11164   0.31412   0.0000000000
C          C       0.26771   0.07000   0.16109   0.0000000000
H          H       0.30575   0.05357   0.09380   0.0000000000
C          C       0.26780   0.11159   0.31328   0.0000000000
H          H       0.30592   0.12794   0.37951   0.0000000000
C          C       0.25350   0.09081   0.23735   0.0000000000
H          H       0.25583   0.05425   0.10054   0.0000000000
H          H       0.25602   0.12740   0.37395   0.0000000000
B          B       0.22376   0.09080   0.23750   0.0000000000
O          O       0.20808   0.07025   0.17261   0.0000000000
O          O       0.20807   0.11133   0.30250   0.0000000000
C          C       0.18189   0.07817   0.19798   0.0000000000
C          C       0.18188   0.10338   0.27725   0.0000000000
C          C       0.15861   0.06436   0.15437   0.0000000000
C          C       0.15859   0.11718   0.32086   0.0000000000
C          C       0.13532   0.07816   0.19798   0.0000000000
H          H       0.15861   0.04482   0.09198   0.0000000000
C          C       0.13531   0.10336   0.27723   0.0000000000
H          H       0.15858   0.13672   0.38323   0.0000000000
O          O       0.10912   0.07022   0.17264   0.0000000000
O          O       0.10912   0.11130   0.30250   0.0000000000
B          B       0.09343   0.09076   0.23754   0.0000000000
C          C       0.06369   0.09075   0.23743   0.0000000000
C          C       0.04948   0.06993   0.16137   0.0000000000
C          C       0.04940   0.11155   0.31317   0.0000000000
C          C       0.02179   0.06980   0.16007   0.0000000000
H          H       0.06135   0.05416   0.10098   0.0000000000
C          C       0.02171   0.11162   0.31399   0.0000000000
H          H       0.06119   0.12737   0.37366   0.0000000000
C          C       0.00713   0.09068   0.23706   0.0000000000
H          H       0.01144   0.05349   0.09428   0.0000000000
H          H       0.01128   0.12794   0.37921   0.0000000000
Cu         Cu      0.90859   0.09078   0.23717   0.0000000000
C          C       0.47541   0.63820   0.63486   0.0000000000
C          C       0.45603   0.65757   0.63473   0.0000000000
C          C       0.46336   0.61413   0.69246   0.0000000000
C          C       0.43196   0.64553   0.69223   0.0000000000
N          N       0.43615   0.61832   0.71699   0.0000000000
C          C       0.46345   0.56737   0.77985   0.0000000000
C          C       0.47554   0.54304   0.83695   0.0000000000
C          C       0.45633   0.52381   0.83649   0.0000000000
C          C       0.43202   0.53591   0.77921   0.0000000000
N          N       0.43615   0.56322   0.75699   0.0000000000
C          C       0.38528   0.53602   0.69130   0.0000000000
C          C       0.36123   0.52398   0.63325   0.0000000000
C          C       0.34185   0.54336   0.63309   0.0000000000
C          C       0.35387   0.56742   0.69104   0.0000000000
N          N       0.38107   0.56323   0.71612   0.0000000000
C          C       0.35372   0.61418   0.77845   0.0000000000
C          C       0.34159   0.63851   0.83530   0.0000000000
C          C       0.36082   0.65773   0.83578   0.0000000000
C          C       0.38517   0.64563   0.77912   0.0000000000
N          N       0.38104   0.61832   0.75649   0.0000000000
Cu         Cu      0.40860   0.59077   0.73718   0.0000000000
C          C       0.33973   0.59092   0.73487   0.0000000000
C          C       0.40878   0.52190   0.73549   0.0000000000
C          C       0.47747   0.59062   0.73659   0.0000000000
C          C       0.40843   0.65964   0.73604   0.0000000000
H          H       0.32106   0.54047   0.59663   0.0000000000
H          H       0.35835   0.50319   0.59694   0.0000000000
H          H       0.45922   0.50299   0.87244   0.0000000000
H          H       0.49634   0.54016   0.87346   0.0000000000
H          H       0.49622   0.64109   0.59885   0.0000000000
H          H       0.45893   0.67837   0.59857   0.0000000000
H          H       0.35792   0.67854   0.87200   0.0000000000
H          H       0.32076   0.64140   0.87091   0.0000000000
C          C       0.50714   0.59069   0.73707   0.0000000000
C          C       0.52179   0.56982   0.65995   0.0000000000
C          C       0.52172   0.61162   0.81408   0.0000000000
C          C       0.54948   0.56996   0.66126   0.0000000000
H          H       0.51143   0.55353   0.59407   0.0000000000
C          C       0.54941   0.61156   0.81323   0.0000000000
H          H       0.51129   0.62793   0.87938   0.0000000000
C          C       0.56370   0.59076   0.73740   0.0000000000
H          H       0.56135   0.55419   0.60076   0.0000000000
H          H       0.56120   0.62737   0.87377   0.0000000000
B          B       0.59344   0.59076   0.73752   0.0000000000
O          O       0.60911   0.57020   0.67263   0.0000000000
O          O       0.60913   0.61129   0.80253   0.0000000000
C          C       0.63531   0.57813   0.69798   0.0000000000
C          C       0.63532   0.60333   0.77725   0.0000000000
C          C       0.65859   0.56430   0.65431   0.0000000000
C          C       0.65862   0.61713   0.82086   0.0000000000
C          C       0.68188   0.57811   0.69787   0.0000000000
H          H       0.65858   0.54477   0.59187   0.0000000000
C          C       0.68189   0.60331   0.77716   0.0000000000
H          H       0.65863   0.63666   0.88323   0.0000000000
O          O       0.70806   0.57016   0.67240   0.0000000000
O          O       0.70809   0.61124   0.80234   0.0000000000
B          B       0.72376   0.59070   0.73725   0.0000000000
C          C       0.75351   0.59072   0.73690   0.0000000000
C          C       0.76778   0.56997   0.66053   0.0000000000
C          C       0.76773   0.61153   0.81299   0.0000000000
C          C       0.79547   0.56993   0.65911   0.0000000000
H          H       0.75597   0.55416   0.59998   0.0000000000
C          C       0.79542   0.61169   0.81377   0.0000000000
H          H       0.75588   0.62727   0.87387   0.0000000000
C          C       0.81006   0.59085   0.73614   0.0000000000
H          H       0.80588   0.55366   0.59330   0.0000000000
H          H       0.80579   0.62798   0.87963   0.0000000000
C          C       0.40871   0.49223   0.73561   0.0000000000
C          C       0.38777   0.47763   0.81228   0.0000000000
C          C       0.42959   0.47760   0.65845   0.0000000000
C          C       0.38784   0.44994   0.81108   0.0000000000
H          H       0.37144   0.48803   0.87761   0.0000000000
C          C       0.42946   0.44991   0.65935   0.0000000000
H          H       0.44590   0.48798   0.59287   0.0000000000
C          C       0.40864   0.43567   0.73517   0.0000000000
H          H       0.37202   0.43812   0.87136   0.0000000000
H          H       0.44524   0.43807   0.59879   0.0000000000
B          B       0.40864   0.40593   0.73495   0.0000000000
O          O       0.38810   0.39024   0.79982   0.0000000000
O          O       0.42918   0.39026   0.66994   0.0000000000
C          C       0.39604   0.36405   0.77440   0.0000000000
C          C       0.42124   0.36406   0.69514   0.0000000000
C          C       0.38223   0.34076   0.81795   0.0000000000
C          C       0.43506   0.34078   0.65144   0.0000000000
C          C       0.39604   0.31748   0.77426   0.0000000000
H          H       0.36270   0.34076   0.88036   0.0000000000
C          C       0.42125   0.31749   0.69499   0.0000000000
H          H       0.45459   0.34078   0.58904   0.0000000000
O          O       0.38811   0.29129   0.79958   0.0000000000
O          O       0.42919   0.29130   0.66966   0.0000000000
B          B       0.40865   0.27561   0.73462   0.0000000000
C          C       0.40866   0.24586   0.73473   0.0000000000
C          C       0.38789   0.23160   0.81102   0.0000000000
C          C       0.42945   0.23163   0.65853   0.0000000000
C          C       0.38782   0.20391   0.81228   0.0000000000
H          H       0.37210   0.24342   0.87161   0.0000000000
C          C       0.42957   0.20394   0.65757   0.0000000000
H          H       0.44520   0.24347   0.59768   0.0000000000
C          C       0.40873   0.18931   0.73517   0.0000000000
H          H       0.37154   0.19351   0.87804   0.0000000000
H          H       0.44585   0.19356   0.59159   0.0000000000
C          C       0.31006   0.59083   0.73477   0.0000000000
C          C       0.29543   0.61167   0.65723   0.0000000000
C          C       0.29547   0.56990   0.81167   0.0000000000
C          C       0.26774   0.61152   0.65796   0.0000000000
H          H       0.30580   0.62797   0.59149   0.0000000000
C          C       0.26778   0.56994   0.81023   0.0000000000
H          H       0.30587   0.55361   0.87736   0.0000000000
C          C       0.25351   0.59070   0.73396   0.0000000000
H          H       0.25589   0.62726   0.59713   0.0000000000
H          H       0.25597   0.55413   0.87067   0.0000000000
B          B       0.22376   0.59069   0.73364   0.0000000000
O          O       0.20809   0.61124   0.66859   0.0000000000
O          O       0.20806   0.57015   0.79849   0.0000000000
C          C       0.18189   0.60330   0.69378   0.0000000000
C          C       0.18188   0.57810   0.77304   0.0000000000
C          C       0.15862   0.61713   0.65011   0.0000000000
C          C       0.15859   0.56430   0.81661   0.0000000000
C          C       0.13533   0.60332   0.69369   0.0000000000
H          H       0.15863   0.63666   0.58773   0.0000000000
C          C       0.13531   0.57812   0.77294   0.0000000000
H          H       0.15858   0.54476   0.87900   0.0000000000
O          O       0.10914   0.61128   0.66840   0.0000000000
O          O       0.10911   0.57019   0.79825   0.0000000000
B          B       0.09344   0.59075   0.73335   0.0000000000
C          C       0.06370   0.59075   0.73345   0.0000000000
C          C       0.04940   0.61155   0.65770   0.0000000000
C          C       0.04949   0.56993   0.80950   0.0000000000
C          C       0.02172   0.61162   0.65690   0.0000000000
H          H       0.06120   0.62737   0.59721   0.0000000000
C          C       0.02179   0.56980   0.81082   0.0000000000
H          H       0.06136   0.55416   0.86990   0.0000000000
C          C       0.00714   0.59068   0.73384   0.0000000000
H          H       0.01129   0.62794   0.59168   0.0000000000
H          H       0.01144   0.55349   0.87662   0.0000000000
C          C       0.40851   0.68931   0.73632   0.0000000000
C          C       0.42942   0.70389   0.81351   0.0000000000
C          C       0.38768   0.70396   0.65882   0.0000000000
C          C       0.42937   0.73158   0.81244   0.0000000000
H          H       0.44570   0.69347   0.87918   0.0000000000
C          C       0.38781   0.73165   0.65996   0.0000000000
H          H       0.37139   0.69360   0.59278   0.0000000000
C          C       0.40861   0.74587   0.73626   0.0000000000
H          H       0.44517   0.74338   0.87312   0.0000000000
H          H       0.37207   0.74351   0.59921   0.0000000000
B          B       0.40861   0.77561   0.73628   0.0000000000
O          O       0.42914   0.79130   0.80130   0.0000000000
O          O       0.38806   0.79129   0.67137   0.0000000000
C          C       0.42119   0.81749   0.77603   0.0000000000
C          C       0.39599   0.81748   0.69676   0.0000000000
C          C       0.43500   0.84077   0.81967   0.0000000000
C          C       0.38217   0.84077   0.65314   0.0000000000
C          C       0.42118   0.86405   0.77604   0.0000000000
H          H       0.45453   0.84077   0.88205   0.0000000000
C          C       0.39598   0.86405   0.69678   0.0000000000
H          H       0.36264   0.84077   0.59073   0.0000000000
O          O       0.42912   0.89025   0.80135   0.0000000000
O          O       0.38804   0.89025   0.67146   0.0000000000
B          B       0.40858   0.90593   0.73639   0.0000000000
C          C       0.40858   0.93568   0.73639   0.0000000000
C          C       0.42938   0.94996   0.81218   0.0000000000
C          C       0.38775   0.94989   0.66048   0.0000000000
C          C       0.42943   0.97765   0.81319   0.0000000000
H          H       0.44520   0.93816   0.87257   0.0000000000
C          C       0.38761   0.97758   0.65938   0.0000000000
H          H       0.37198   0.93803   0.60004   0.0000000000
C          C       0.40848   0.99224   0.73643   0.0000000000
H          H       0.44575   0.98807   0.87848   0.0000000000
H          H       0.37129   0.98794   0.59377   0.0000000000
C          C       0.83973   0.59094   0.73605   0.0000000000
C          C       0.85372   0.61420   0.69261   0.0000000000
C          C       0.85387   0.56742   0.77969   0.0000000000
C          C       0.84159   0.63853   0.63589   0.0000000000
N          N       0.88104   0.61834   0.71463   0.0000000000
C          C       0.84185   0.54335   0.83743   0.0000000000
N          N       0.88107   0.56323   0.75454   0.0000000000
C          C       0.86082   0.65776   0.63561   0.0000000000
H          H       0.82076   0.64143   0.60030   0.0000000000
C          C       0.88517   0.64565   0.69222   0.0000000000
C          C       0.86122   0.52398   0.83705   0.0000000000
H          H       0.82106   0.54046   0.87400   0.0000000000
C          C       0.88527   0.53602   0.77912   0.0000000000
H          H       0.85792   0.67858   0.59966   0.0000000000
C          C       0.90843   0.65965   0.73542   0.0000000000
H          H       0.85834   0.50317   0.87321   0.0000000000
C          C       0.90877   0.52190   0.73487   0.0000000000
C          C       0.93196   0.64552   0.77909   0.0000000000
C          C       0.93201   0.53592   0.69121   0.0000000000
C          C       0.95603   0.65755   0.83664   0.0000000000
N          N       0.93614   0.61832   0.75409   0.0000000000
C          C       0.95632   0.52383   0.63382   0.0000000000
N          N       0.93615   0.56323   0.71366   0.0000000000
C          C       0.97541   0.63818   0.83628   0.0000000000
H          H       0.95893   0.67835   0.87306   0.0000000000
C          C       0.96336   0.61412   0.77855   0.0000000000
C          C       0.97554   0.54306   0.63358   0.0000000000
H          H       0.95920   0.50301   0.59772   0.0000000000
C          C       0.96345   0.56737   0.69087   0.0000000000
H          H       0.99622   0.64107   0.87234   0.0000000000
C          C       0.97747   0.59062   0.73432   0.0000000000
H          H       0.99634   0.54018   0.59717   0.0000000000
Cu         Cu      0.90860   0.59078   0.73369   0.0000000000
C          C       0.40879   0.15965   0.73511   0.0000000000
C          C       0.43205   0.14563   0.77837   0.0000000000
C          C       0.38526   0.14553   0.69153   0.0000000000
C          C       0.45639   0.15773   0.83505   0.0000000000
N          N       0.43617   0.11832   0.75607   0.0000000000
C          C       0.36119   0.15757   0.63404   0.0000000000
N          N       0.38106   0.11833   0.71662   0.0000000000
C          C       0.47561   0.13849   0.83499   0.0000000000
H          H       0.45930   0.17855   0.87093   0.0000000000
C          C       0.46348   0.11417   0.77825   0.0000000000
C          C       0.34179   0.13821   0.63462   0.0000000000
H          H       0.35830   0.17836   0.59754   0.0000000000
C          C       0.35384   0.11415   0.69234   0.0000000000
H          H       0.49644   0.14138   0.87081   0.0000000000
C          C       0.47747   0.09091   0.73473   0.0000000000
H          H       0.32098   0.14111   0.59881   0.0000000000
C          C       0.33973   0.09064   0.73652   0.0000000000
C          C       0.46333   0.06740   0.69100   0.0000000000
C          C       0.35374   0.06739   0.77986   0.0000000000
C          C       0.47534   0.04333   0.63317   0.0000000000
N          N       0.43612   0.06322   0.71627   0.0000000000
C          C       0.34164   0.04307   0.83708   0.0000000000
N          N       0.38105   0.06324   0.75718   0.0000000000
C          C       0.45596   0.02395   0.63372   0.0000000000
H          H       0.49611   0.04043   0.59641   0.0000000000
C          C       0.43192   0.03601   0.69178   0.0000000000
C          C       0.36087   0.02384   0.83700   0.0000000000
H          H       0.32083   0.04020   0.87332   0.0000000000
C          C       0.38518   0.03593   0.77971   0.0000000000
H          H       0.45884   0.00315   0.59764   0.0000000000
C          C       0.40842   0.02190   0.73612   0.0000000000
H          H       0.35798   0.00303   0.87319   0.0000000000
Cu         Cu      0.40860   0.09077   0.73707   0.0000000000
C          C       0.90872   0.49224   0.73457   0.0000000000
C          C       0.88778   0.47765   0.65775   0.0000000000
C          C       0.92961   0.47760   0.81159   0.0000000000
C          C       0.88786   0.44996   0.65871   0.0000000000
H          H       0.87146   0.48806   0.59252   0.0000000000
C          C       0.92949   0.44991   0.81045   0.0000000000
H          H       0.94592   0.48797   0.87727   0.0000000000
C          C       0.90867   0.43568   0.73450   0.0000000000
H          H       0.87204   0.43815   0.59831   0.0000000000
H          H       0.94526   0.43805   0.87089   0.0000000000
B          B       0.90867   0.40594   0.73452   0.0000000000
O          O       0.88812   0.39025   0.66961   0.0000000000
O          O       0.92921   0.39026   0.79948   0.0000000000
C          C       0.89607   0.36405   0.69495   0.0000000000
C          C       0.92127   0.36406   0.77421   0.0000000000
C          C       0.88226   0.34077   0.65135   0.0000000000
C          C       0.93509   0.34078   0.81787   0.0000000000
C          C       0.89607   0.31749   0.69503   0.0000000000
H          H       0.86272   0.34077   0.58896   0.0000000000
C          C       0.92128   0.31749   0.77430   0.0000000000
H          H       0.95462   0.34078   0.88028   0.0000000000
O          O       0.88813   0.29129   0.66981   0.0000000000
O          O       0.92921   0.29130   0.79973   0.0000000000
B          B       0.90867   0.27561   0.73486   0.0000000000
C          C       0.90865   0.24587   0.73509   0.0000000000
C          C       0.88784   0.23166   0.65890   0.0000000000
C          C       0.92940   0.23158   0.81139   0.0000000000
C          C       0.88769   0.20396   0.65796   0.0000000000
H          H       0.87211   0.24352   0.59806   0.0000000000
C          C       0.92943   0.20389   0.81268   0.0000000000
H          H       0.94521   0.24338   0.87200   0.0000000000
C          C       0.90851   0.18931   0.73555   0.0000000000
H          H       0.87139   0.19360   0.59202   0.0000000000
H          H       0.94570   0.19347   0.87848   0.0000000000
C          C       0.90851   0.68931   0.73532   0.0000000000
C          C       0.88768   0.70396   0.81290   0.0000000000
C          C       0.92943   0.70389   0.65819   0.0000000000
C          C       0.88784   0.73166   0.81196   0.0000000000
H          H       0.87139   0.69361   0.87885   0.0000000000
C          C       0.92940   0.73159   0.65948   0.0000000000
H          H       0.94570   0.69347   0.59241   0.0000000000
C          C       0.90865   0.74587   0.73578   0.0000000000
H          H       0.87211   0.74352   0.87280   0.0000000000
H          H       0.94521   0.74338   0.59886   0.0000000000
B          B       0.90867   0.77561   0.73602   0.0000000000
O          O       0.88813   0.79129   0.80107   0.0000000000
O          O       0.92921   0.79131   0.67114   0.0000000000
C          C       0.89607   0.81749   0.77585   0.0000000000
C          C       0.92127   0.81750   0.69658   0.0000000000
C          C       0.88225   0.84077   0.81953   0.0000000000
C          C       0.93508   0.84078   0.65300   0.0000000000
C          C       0.89606   0.86405   0.77592   0.0000000000
H          H       0.86272   0.84076   0.88191   0.0000000000
C          C       0.92127   0.86406   0.69667   0.0000000000
H          H       0.95461   0.84079   0.59059   0.0000000000
O          O       0.88812   0.89025   0.80128   0.0000000000
O          O       0.92920   0.89026   0.67141   0.0000000000
B          B       0.90866   0.90594   0.73636   0.0000000000
C          C       0.90866   0.93568   0.73639   0.0000000000
C          C       0.88785   0.94996   0.81217   0.0000000000
C          C       0.92948   0.94991   0.66043   0.0000000000
C          C       0.88777   0.97765   0.81314   0.0000000000
H          H       0.87203   0.93815   0.87257   0.0000000000
C          C       0.92960   0.97760   0.65929   0.0000000000
H          H       0.94525   0.93805   0.59999   0.0000000000
C          C       0.90871   0.99224   0.73634   0.0000000000
H          H       0.87145   0.98806   0.87837   0.0000000000
H          H       0.94591   0.98797   0.59361   0.0000000000
C          C       0.90843   0.15965   0.73545   0.0000000000
C          C       0.88516   0.14565   0.77866   0.0000000000
C          C       0.93195   0.14552   0.69178   0.0000000000
C          C       0.86082   0.15776   0.83526   0.0000000000
N          N       0.88103   0.11834   0.75625   0.0000000000
C          C       0.95603   0.15755   0.63423   0.0000000000
N          N       0.93614   0.11832   0.71677   0.0000000000
C          C       0.84159   0.13854   0.83498   0.0000000000
H          H       0.85792   0.17858   0.87121   0.0000000000
C          C       0.85372   0.11420   0.77827   0.0000000000
C          C       0.97541   0.13818   0.63459   0.0000000000
H          H       0.95892   0.17834   0.59781   0.0000000000
C          C       0.96336   0.11412   0.69232   0.0000000000
H          H       0.82076   0.14144   0.87058   0.0000000000
C          C       0.83972   0.09094   0.73482   0.0000000000
H          H       0.99621   0.14107   0.59855   0.0000000000
C          C       0.97747   0.09062   0.73658   0.0000000000
C          C       0.85386   0.06742   0.69118   0.0000000000
C          C       0.96345   0.06737   0.78002   0.0000000000
C          C       0.84184   0.04336   0.63343   0.0000000000
N          N       0.88107   0.06323   0.71632   0.0000000000
C          C       0.97554   0.04306   0.83732   0.0000000000
N          N       0.93614   0.06323   0.75722   0.0000000000
C          C       0.86122   0.02398   0.63382   0.0000000000
H          H       0.82106   0.04046   0.59687   0.0000000000
C          C       0.88527   0.03602   0.69176   0.0000000000
C          C       0.95631   0.02383   0.83707   0.0000000000
H          H       0.99634   0.04018   0.87375   0.0000000000
C          C       0.93201   0.03592   0.77967   0.0000000000
H          H       0.85834   0.00317   0.59767   0.0000000000
C          C       0.90877   0.02190   0.73602   0.0000000000
H          H       0.95920   0.00301   0.87318   0.0000000000
C          C       0.50713   0.09080   0.73463   0.0000000000
C          C       0.52172   0.06986   0.81141   0.0000000000
C          C       0.52178   0.11165   0.65721   0.0000000000
C          C       0.54941   0.06989   0.80999   0.0000000000
H          H       0.51131   0.05357   0.87704   0.0000000000
C          C       0.54947   0.11149   0.65795   0.0000000000
H          H       0.51141   0.12797   0.59154   0.0000000000
C          C       0.56369   0.09066   0.73384   0.0000000000
H          H       0.56122   0.05406   0.87037   0.0000000000
H          H       0.56133   0.12723   0.59723   0.0000000000
B          B       0.59343   0.09064   0.73354   0.0000000000
O          O       0.60913   0.07010   0.79841   0.0000000000
O          O       0.60911   0.11118   0.66849   0.0000000000
C          C       0.63532   0.07805   0.77299   0.0000000000
C          C       0.63531   0.10325   0.69371   0.0000000000
C          C       0.65861   0.06424   0.81662   0.0000000000
C          C       0.65859   0.11707   0.65005   0.0000000000
C          C       0.68188   0.07806   0.77300   0.0000000000
H          H       0.65862   0.04471   0.87905   0.0000000000
C          C       0.68188   0.10327   0.69371   0.0000000000
H          H       0.65858   0.13660   0.58767   0.0000000000
O          O       0.70808   0.07014   0.79845   0.0000000000
O          O       0.70807   0.11122   0.66850   0.0000000000
B          B       0.72376   0.09069   0.73359   0.0000000000
C          C       0.75350   0.09072   0.73394   0.0000000000
C          C       0.76778   0.06997   0.81032   0.0000000000
C          C       0.76773   0.11153   0.65785   0.0000000000
C          C       0.79547   0.06993   0.81177   0.0000000000
H          H       0.75597   0.05416   0.87085   0.0000000000
C          C       0.79542   0.11169   0.65709   0.0000000000
H          H       0.75588   0.12727   0.59694   0.0000000000
C          C       0.81006   0.09085   0.73475   0.0000000000
H          H       0.80588   0.05366   0.87759   0.0000000000
H          H       0.80579   0.12798   0.59125   0.0000000000
C          C       0.31006   0.09072   0.73699   0.0000000000
C          C       0.29540   0.06986   0.65976   0.0000000000
C          C       0.29549   0.11164   0.81412   0.0000000000
C          C       0.26771   0.07000   0.66109   0.0000000000
H          H       0.30575   0.05357   0.59380   0.0000000000
C          C       0.26780   0.11159   0.81328   0.0000000000
H          H       0.30592   0.12794   0.87952   0.0000000000
C          C       0.25350   0.09081   0.73735   0.0000000000
H          H       0.25583   0.05425   0.60054   0.0000000000
H          H       0.25602   0.12740   0.87395   0.0000000000
B          B       0.22376   0.09080   0.73750   0.0000000000
O          O       0.20808   0.07025   0.67262   0.0000000000
O          O       0.20807   0.11133   0.80250   0.0000000000
C          C       0.18189   0.07817   0.69799   0.0000000000
C          C       0.18188   0.10338   0.77725   0.0000000000
C          C       0.15861   0.06436   0.65437   0.0000000000
C          C       0.15859   0.11718   0.82086   0.0000000000
C          C       0.13532   0.07816   0.69799   0.0000000000
H          H       0.15861   0.04482   0.59198   0.0000000000
C          C       0.13531   0.10336   0.77723   0.0000000000
H          H       0.15858   0.13672   0.88323   0.0000000000
O          O       0.10912   0.07022   0.67264   0.0000000000
O          O       0.10912   0.11130   0.80250   0.0000000000
B          B       0.09343   0.09076   0.73754   0.0000000000
C          C       0.06369   0.09075   0.73743   0.0000000000
C          C       0.04948   0.06993   0.66137   0.0000000000
C          C       0.04940   0.11155   0.81317   0.0000000000
C          C       0.02179   0.06980   0.66008   0.0000000000
H          H       0.06135   0.05416   0.60098   0.0000000000
C          C       0.02171   0.11162   0.81399   0.0000000000
H          H       0.06119   0.12737   0.87366   0.0000000000
C          C       0.00713   0.09068   0.73707   0.0000000000
H          H       0.01144   0.05349   0.59428   0.0000000000
H          H       0.01128   0.12794   0.87921   0.0000000000
Cu         Cu      0.90859   0.09078   0.73716   0.0000000000
