data_crystal

_cell_length_a    50.30000
_cell_length_b    50.30000
_cell_length_c    7.80000
_cell_angle_alpha 90.00000
_cell_angle_beta  90.00000
_cell_angle_gamma 90.00000

_space_group_name_Hall 'P 1'
_space_group_name_H-M_alt  'P 1'

loop_
_symmetry_equiv_pos_as_xyz
'x,y,z' 

loop_
_atom_site_label
_atom_site_type_symbol
_atom_site_fract_x
_atom_site_fract_y
_atom_site_fract_z
C          C       0.47292   0.64103   0.12726 
C          C       0.45355   0.66039   0.12707 
C          C       0.46112   0.61668   0.18531 
C          C       0.42919   0.64860   0.18503 
N          N       0.43461   0.62210   0.21271 
C          C       0.46054   0.56782   0.24946 
C          C       0.47319   0.54321   0.30681 
C          C       0.45408   0.52409   0.30632 
C          C       0.42949   0.53676   0.24880 
N          N       0.43399   0.56332   0.22234 
C          C       0.38064   0.53619   0.18397 
C          C       0.35632   0.52440   0.12549 
C          C       0.33695   0.54377   0.12528 
C          C       0.34872   0.56811   0.18364 
N          N       0.37522   0.56269   0.21158 
C          C       0.34925   0.61697   0.24796 
C          C       0.33655   0.64158   0.30504 
C          C       0.35568   0.66069   0.30554 
C          C       0.38031   0.64803   0.24866 
N          N       0.37581   0.62148   0.22176 
C          C       0.33556   0.59272   0.21571 
C          C       0.40525   0.52305   0.21640 
C          C       0.47425   0.59207   0.21762 
C          C       0.40456   0.66174   0.21698 
H          H       0.31636   0.54083   0.08425 
H          H       0.35340   0.50380   0.08465 
H          H       0.45695   0.50340   0.34636 
H          H       0.49385   0.54034   0.34745 
H          H       0.49353   0.64397   0.08667 
H          H       0.45648   0.68100   0.08633 
H          H       0.35279   0.68136   0.34587 
H          H       0.31585   0.64446   0.34475 
C          C       0.50382   0.59206   0.21712 
C          C       0.51830   0.57143   0.13614 
C          C       0.51839   0.61265   0.29792 
C          C       0.54597   0.57140   0.13780 
H          H       0.50779   0.55555   0.06714 
C          C       0.54606   0.61255   0.29601 
H          H       0.50800   0.62858   0.36719 
C          C       0.56015   0.59196   0.21687 
H          H       0.55784   0.55585   0.07509 
H          H       0.55807   0.62801   0.35853 
B          B       0.58987   0.59204   0.21740 
O          O       0.60563   0.57161   0.15207 
O          O       0.60538   0.61261   0.28348 
C          C       0.63174   0.57965   0.17836 
C          C       0.63159   0.60479   0.25844 
C          C       0.65507   0.56595   0.13470 
C          C       0.65475   0.61870   0.30307 
C          C       0.67823   0.57986   0.17931 
H          H       0.65519   0.54647   0.07167 
C          C       0.67807   0.60501   0.25940 
H          H       0.65462   0.63819   0.36605 
O          O       0.70443   0.57206   0.15407 
O          O       0.70418   0.61306   0.28553 
B          B       0.71994   0.59264   0.22002 
C          C       0.74967   0.59275   0.22004 
C          C       0.76373   0.57219   0.14036 
C          C       0.76386   0.61330   0.29900 
C          C       0.79140   0.57213   0.13780 
H          H       0.75170   0.55675   0.07795 
C          C       0.79153   0.61330   0.30003 
H          H       0.75202   0.62883   0.36212 
C          C       0.80599   0.59271   0.21854 
H          H       0.80177   0.55623   0.06803 
H          H       0.80206   0.62918   0.36894 
C          C       0.40526   0.49348   0.21554 
C          C       0.38467   0.47888   0.29608 
C          C       0.42590   0.47903   0.13449 
C          C       0.38477   0.45121   0.29379 
H          H       0.36872   0.48925   0.36540 
C          C       0.42593   0.45135   0.13570 
H          H       0.44179   0.48956   0.06575 
C          C       0.40537   0.43715   0.21452 
H          H       0.36931   0.43918   0.35609 
H          H       0.44149   0.43951   0.07287 
B          B       0.40527   0.40743   0.21468 
O          O       0.38471   0.39191   0.28080 
O          O       0.42569   0.39167   0.14902 
C          C       0.39252   0.36571   0.25549 
C          C       0.41764   0.36556   0.17518 
C          C       0.37861   0.34254   0.30017 
C          C       0.43133   0.34224   0.13134 
C          C       0.39230   0.31922   0.25632 
H          H       0.35915   0.34266   0.36339 
C          C       0.41743   0.31908   0.17600 
H          H       0.45080   0.34212   0.06813 
O          O       0.38427   0.29311   0.28255 
O          O       0.42524   0.29287   0.15073 
B          B       0.40468   0.27736   0.21693 
C          C       0.40458   0.24763   0.21722 
C          C       0.38404   0.23347   0.29645 
C          C       0.42514   0.23354   0.13768 
C          C       0.38404   0.20579   0.29791 
H          H       0.36852   0.24534   0.35946 
C          C       0.42519   0.20587   0.13553 
H          H       0.44059   0.24554   0.07502 
C          C       0.40462   0.19130   0.21653 
H          H       0.36817   0.19529   0.36707 
H          H       0.44109   0.19547   0.06586 
C          C       0.30599   0.59270   0.21461 
C          C       0.29153   0.61330   0.13322 
C          C       0.29140   0.57212   0.29525 
C          C       0.26386   0.61331   0.13426 
H          H       0.30206   0.62919   0.06440 
C          C       0.26373   0.57218   0.29272 
H          H       0.30177   0.55620   0.36490 
C          C       0.24966   0.59275   0.21313 
H          H       0.25201   0.62884   0.07121 
H          H       0.25170   0.55673   0.35507 
B          B       0.21994   0.59264   0.21319 
O          O       0.20418   0.61307   0.14771 
O          O       0.20443   0.57206   0.27912 
C          C       0.17807   0.60502   0.17382 
C          C       0.17822   0.57987   0.25389 
C          C       0.15474   0.61871   0.13018 
C          C       0.15506   0.56596   0.29849 
C          C       0.13159   0.60480   0.17480 
H          H       0.15462   0.63820   0.06721 
C          C       0.13174   0.57966   0.25484 
H          H       0.15519   0.54648   0.36150 
O          O       0.10538   0.61262   0.14975 
O          O       0.10563   0.57161   0.28112 
B          B       0.08987   0.59205   0.21580 
C          C       0.06015   0.59196   0.21631 
C          C       0.04606   0.61256   0.13723 
C          C       0.04597   0.57140   0.29528 
C          C       0.01839   0.61266   0.13532 
H          H       0.05807   0.62803   0.07478 
C          C       0.01830   0.57143   0.29691 
H          H       0.05784   0.55584   0.35794 
C          C       0.00382   0.59206   0.21603 
H          H       0.00799   0.62860   0.06614 
H          H       0.00779   0.55553   0.36581 
C          C       0.40457   0.69130   0.21626 
C          C       0.42513   0.70588   0.29727 
C          C       0.38397   0.70578   0.13487 
C          C       0.42505   0.73355   0.29513 
H          H       0.44103   0.69549   0.36693 
C          C       0.38395   0.73345   0.13636 
H          H       0.36811   0.69526   0.06571 
C          C       0.40448   0.74763   0.21562 
H          H       0.44048   0.74557   0.35779 
H          H       0.36842   0.74531   0.07334 
B          B       0.40457   0.77735   0.21607 
O          O       0.42512   0.79286   0.28232 
O          O       0.38415   0.79311   0.15054 
C          C       0.41731   0.81907   0.25722 
C          C       0.39218   0.81922   0.17691 
C          C       0.43121   0.84223   0.30199 
C          C       0.37849   0.84255   0.13319 
C          C       0.41752   0.86556   0.25825 
H          H       0.45068   0.84211   0.36518 
C          C       0.39239   0.86571   0.17796 
H          H       0.35902   0.84267   0.06998 
O          O       0.42556   0.89167   0.28450 
O          O       0.38459   0.89191   0.15275 
B          B       0.40515   0.90742   0.21889 
C          C       0.40526   0.93715   0.21907 
C          C       0.42583   0.95133   0.29785 
C          C       0.38467   0.95122   0.13975 
C          C       0.42582   0.97901   0.29903 
H          H       0.44138   0.93949   0.36069 
C          C       0.38459   0.97889   0.13744 
H          H       0.36920   0.93919   0.07748 
C          C       0.40519   0.99348   0.21795 
H          H       0.44172   0.98953   0.36775 
H          H       0.36865   0.98927   0.06809 
C          C       0.83556   0.59273   0.21741 
C          C       0.84925   0.61698   0.18534 
C          C       0.84872   0.56811   0.24931 
C          C       0.83655   0.64160   0.12844 
N          N       0.87581   0.62148   0.21161 
C          C       0.83695   0.54376   0.30750 
N          N       0.87521   0.56269   0.22130 
C          C       0.85567   0.66072   0.12815 
H          H       0.81586   0.64449   0.08868 
C          C       0.88030   0.64804   0.18496 
C          C       0.85631   0.52439   0.30711 
H          H       0.81636   0.54082   0.34858 
C          C       0.88064   0.53619   0.24868 
H          H       0.85278   0.68140   0.08804 
C          C       0.90456   0.66174   0.21673 
H          H       0.85339   0.50378   0.34775 
C          C       0.90525   0.52305   0.21617 
C          C       0.92919   0.64859   0.24859 
C          C       0.92948   0.53676   0.18387 
C          C       0.95354   0.66038   0.30663 
N          N       0.93460   0.62210   0.22068 
C          C       0.95408   0.52410   0.12628 
N          N       0.93399   0.56332   0.21055 
C          C       0.97292   0.64102   0.30624 
H          H       0.95648   0.68097   0.34759 
C          C       0.96111   0.61668   0.24800 
C          C       0.97319   0.54322   0.12600 
H          H       0.95695   0.50343   0.08604 
C          C       0.96053   0.56783   0.18350 
H          H       0.99353   0.64395   0.34680 
C          C       0.97425   0.59207   0.21553 
H          H       0.99385   0.54036   0.08543 
C          C       0.40460   0.16174   0.21585 
C          C       0.42922   0.14858   0.24782 
C          C       0.38034   0.14804   0.18422 
C          C       0.45358   0.16037   0.30575 
N          N       0.43462   0.12208   0.22023 
C          C       0.35571   0.16072   0.12732 
N          N       0.37583   0.12149   0.21121 
C          C       0.47294   0.14100   0.30568 
H          H       0.45653   0.18098   0.34645 
C          C       0.46113   0.11665   0.24767 
C          C       0.33658   0.14161   0.12793 
H          H       0.35283   0.18138   0.08693 
C          C       0.34926   0.11700   0.18507 
H          H       0.49355   0.14392   0.34630 
C          C       0.47425   0.09203   0.21546 
H          H       0.31588   0.14451   0.08827 
C          C       0.33556   0.09276   0.21740 
C          C       0.46052   0.06778   0.18371 
C          C       0.34871   0.06815   0.24955 
C          C       0.47316   0.04316   0.12645 
N          N       0.43397   0.06329   0.21088 
C          C       0.33692   0.04381   0.30800 
N          N       0.37520   0.06271   0.22165 
C          C       0.45404   0.02404   0.12707 
H          H       0.49381   0.04028   0.08578 
C          C       0.42945   0.03673   0.18455 
C          C       0.35628   0.02444   0.30790 
H          H       0.31632   0.04090   0.34900 
C          C       0.38061   0.03621   0.24939 
H          H       0.45690   0.00335   0.08714 
C          C       0.40521   0.02305   0.21700 
H          H       0.35334   0.00384   0.34885 
C          C       0.90526   0.49348   0.21685 
C          C       0.88467   0.47889   0.13620 
C          C       0.92590   0.47902   0.29781 
C          C       0.88478   0.45122   0.13827 
H          H       0.86872   0.48927   0.06698 
C          C       0.92594   0.45134   0.29636 
H          H       0.94179   0.48954   0.36664 
C          C       0.90538   0.43715   0.21744 
H          H       0.86932   0.43919   0.07590 
H          H       0.94150   0.43950   0.35912 
B          B       0.90529   0.40743   0.21705 
O          O       0.88472   0.39192   0.15085 
O          O       0.92570   0.39166   0.28262 
C          C       0.89252   0.36572   0.17603 
C          C       0.91765   0.36556   0.25632 
C          C       0.87862   0.34256   0.13129 
C          C       0.93133   0.34222   0.30011 
C          C       0.89230   0.31923   0.17508 
H          H       0.85915   0.34269   0.06809 
C          C       0.91742   0.31907   0.25538 
H          H       0.95080   0.34210   0.36332 
O          O       0.88425   0.29312   0.14885 
O          O       0.92522   0.29286   0.28065 
B          B       0.90465   0.27736   0.21450 
C          C       0.90454   0.24763   0.21435 
C          C       0.88399   0.23345   0.13525 
C          C       0.92509   0.23355   0.29400 
C          C       0.88399   0.20578   0.13404 
H          H       0.86847   0.24531   0.07212 
C          C       0.92515   0.20589   0.29643 
H          H       0.94054   0.24558   0.35655 
C          C       0.90458   0.19131   0.21553 
H          H       0.86813   0.19526   0.06500 
H          H       0.94104   0.19550   0.36619 
C          C       0.90458   0.69131   0.21767 
C          C       0.88399   0.70578   0.29916 
C          C       0.92515   0.70589   0.13677 
C          C       0.88399   0.73345   0.29795 
H          H       0.86813   0.69526   0.36819 
C          C       0.92509   0.73356   0.13919 
H          H       0.94104   0.69551   0.06702 
C          C       0.90454   0.74763   0.21885 
H          H       0.86847   0.74531   0.36107 
H          H       0.94053   0.74558   0.07664 
B          B       0.90465   0.77736   0.21869 
O          O       0.88424   0.79312   0.28434 
O          O       0.92522   0.79286   0.15255 
C          C       0.89229   0.81923   0.25811 
C          C       0.91742   0.81907   0.17782 
C          C       0.87861   0.84256   0.30191 
C          C       0.93133   0.84223   0.13311 
C          C       0.89252   0.86572   0.25718 
H          H       0.85914   0.84268   0.36511 
C          C       0.91765   0.86556   0.17689 
H          H       0.95080   0.84210   0.06990 
O          O       0.88472   0.89192   0.28236 
O          O       0.92569   0.89167   0.15060 
B          B       0.90528   0.90743   0.21616 
C          C       0.90537   0.93715   0.21577 
C          C       0.88477   0.95122   0.29494 
C          C       0.92593   0.95134   0.13685 
C          C       0.88466   0.97889   0.29698 
H          H       0.86931   0.93919   0.35731 
C          C       0.92589   0.97902   0.13539 
H          H       0.94149   0.93950   0.07409 
C          C       0.90525   0.99348   0.21636 
H          H       0.86871   0.98927   0.36622 
H          H       0.94178   0.98954   0.06656 
C          C       0.90456   0.16174   0.21645 
C          C       0.88030   0.14804   0.24823 
C          C       0.92919   0.14859   0.18461 
C          C       0.85567   0.16072   0.30504 
N          N       0.87581   0.12149   0.22157 
C          C       0.95354   0.16038   0.12658 
N          N       0.93460   0.12210   0.21250 
C          C       0.83655   0.14160   0.30475 
H          H       0.85279   0.18140   0.34516 
C          C       0.84924   0.11699   0.24785 
C          C       0.97291   0.14102   0.12698 
H          H       0.95648   0.18097   0.08562 
C          C       0.96111   0.11668   0.18521 
H          H       0.81586   0.14449   0.34452 
C          C       0.83556   0.09273   0.21578 
H          H       0.99353   0.14395   0.08643 
C          C       0.97425   0.09207   0.21768 
C          C       0.84872   0.06811   0.18390 
C          C       0.96053   0.06783   0.24969 
C          C       0.83694   0.04376   0.12569 
N          N       0.87521   0.06270   0.21191 
C          C       0.97318   0.04322   0.30721 
N          N       0.93398   0.06332   0.22266 
C          C       0.85630   0.02439   0.12610 
H          H       0.81635   0.04083   0.08463 
C          C       0.88063   0.03619   0.18452 
C          C       0.95407   0.02410   0.30693 
H          H       0.99384   0.04036   0.34778 
C          C       0.92948   0.03676   0.24934 
H          H       0.85338   0.00378   0.08546 
C          C       0.90524   0.02305   0.21704 
H          H       0.95694   0.00343   0.34717 
C          C       0.50382   0.09201   0.21596 
C          C       0.51829   0.07138   0.29698 
C          C       0.51840   0.11258   0.13512 
C          C       0.54596   0.07134   0.29537 
H          H       0.50777   0.05550   0.36602 
C          C       0.54606   0.11248   0.13708 
H          H       0.50801   0.12852   0.06580 
C          C       0.56014   0.09189   0.21628 
H          H       0.55781   0.05578   0.35814 
H          H       0.55808   0.12793   0.07457 
B          B       0.58987   0.09198   0.21578 
O          O       0.60563   0.07155   0.28113 
O          O       0.60537   0.11255   0.14969 
C          C       0.63174   0.07961   0.25484 
C          C       0.63158   0.10475   0.17476 
C          C       0.65507   0.06592   0.29850 
C          C       0.65473   0.11867   0.13014 
C          C       0.67823   0.07984   0.25391 
H          H       0.65520   0.04644   0.36155 
C          C       0.67806   0.10498   0.17381 
H          H       0.65460   0.13816   0.06714 
O          O       0.70443   0.07205   0.27914 
O          O       0.70417   0.11305   0.14768 
B          B       0.71994   0.09263   0.21321 
C          C       0.74966   0.09276   0.21316 
C          C       0.76373   0.07220   0.29284 
C          C       0.76385   0.11331   0.13420 
C          C       0.79139   0.07213   0.29541 
H          H       0.75169   0.05675   0.35525 
C          C       0.79153   0.11330   0.13317 
H          H       0.75201   0.12884   0.07108 
C          C       0.80599   0.09271   0.21466 
H          H       0.80177   0.05623   0.36518 
H          H       0.80206   0.12918   0.06427 
C          C       0.30599   0.09276   0.21853 
C          C       0.29138   0.07217   0.13793 
C          C       0.29154   0.11337   0.29987 
C          C       0.26372   0.07225   0.14050 
H          H       0.30175   0.05625   0.06830 
C          C       0.26386   0.11338   0.29889 
H          H       0.30207   0.12925   0.36863 
C          C       0.24966   0.09282   0.22007 
H          H       0.25168   0.05680   0.07819 
H          H       0.25203   0.12892   0.36194 
B          B       0.21994   0.09270   0.22003 
O          O       0.20443   0.07212   0.15412 
O          O       0.20417   0.11312   0.28552 
C          C       0.17823   0.07991   0.17935 
C          C       0.17806   0.10506   0.25941 
C          C       0.15507   0.06599   0.13476 
C          C       0.15473   0.11875   0.30305 
C          C       0.13174   0.07968   0.17840 
H          H       0.15520   0.04651   0.07175 
C          C       0.13158   0.10483   0.25845 
H          H       0.15460   0.13823   0.36602 
O          O       0.10563   0.07163   0.15212 
O          O       0.10537   0.11263   0.28350 
B          B       0.08987   0.09205   0.21744 
C          C       0.06014   0.09196   0.21691 
C          C       0.04597   0.07140   0.13794 
C          C       0.04606   0.11256   0.29598 
C          C       0.01830   0.07142   0.13631 
H          H       0.05783   0.05584   0.07528 
C          C       0.01839   0.11265   0.29790 
H          H       0.05807   0.12802   0.35841 
C          C       0.00382   0.09206   0.21718 
H          H       0.00779   0.05553   0.06741 
H          H       0.00799   0.12860   0.36707 
H          H       0.42089   0.60838   0.25648 
H          H       0.38892   0.57641   0.25566 
H          H       0.92088   0.60839   0.17681 
H          H       0.88892   0.57642   0.17730 
H          H       0.42089   0.10837   0.17649 
H          H       0.38891   0.07641   0.17752 
H          H       0.92088   0.10839   0.25637 
H          H       0.88891   0.07642   0.25591 
C          C       0.47292   0.64103   0.62726 
C          C       0.45355   0.66039   0.62708 
C          C       0.46112   0.61668   0.68531 
C          C       0.42919   0.64860   0.68502 
N          N       0.43461   0.62210   0.71271 
C          C       0.46054   0.56782   0.74946 
C          C       0.47319   0.54321   0.80681 
C          C       0.45408   0.52409   0.80632 
C          C       0.42949   0.53676   0.74879 
N          N       0.43399   0.56332   0.72234 
C          C       0.38064   0.53619   0.68398 
C          C       0.35632   0.52440   0.62549 
C          C       0.33695   0.54377   0.62528 
C          C       0.34872   0.56811   0.68364 
N          N       0.37522   0.56269   0.71158 
C          C       0.34925   0.61697   0.74796 
C          C       0.33655   0.64158   0.80504 
C          C       0.35568   0.66069   0.80554 
C          C       0.38031   0.64803   0.74866 
N          N       0.37581   0.62148   0.72176 
C          C       0.33556   0.59272   0.71571 
C          C       0.40525   0.52305   0.71640 
C          C       0.47425   0.59207   0.71762 
C          C       0.40456   0.66174   0.71698 
H          H       0.31636   0.54083   0.58426 
H          H       0.35340   0.50380   0.58466 
H          H       0.45695   0.50340   0.84636 
H          H       0.49385   0.54034   0.84745 
H          H       0.49353   0.64397   0.58666 
H          H       0.45648   0.68100   0.58634 
H          H       0.35279   0.68136   0.84587 
H          H       0.31585   0.64446   0.84475 
C          C       0.50382   0.59206   0.71712 
C          C       0.51830   0.57143   0.63614 
C          C       0.51839   0.61265   0.79793 
C          C       0.54597   0.57140   0.63780 
H          H       0.50779   0.55555   0.56714 
C          C       0.54606   0.61255   0.79602 
H          H       0.50800   0.62858   0.86719 
C          C       0.56015   0.59196   0.71687 
H          H       0.55784   0.55585   0.57509 
H          H       0.55807   0.62801   0.85853 
B          B       0.58987   0.59204   0.71740 
O          O       0.60563   0.57161   0.65207 
O          O       0.60538   0.61261   0.78349 
C          C       0.63174   0.57965   0.67836 
C          C       0.63159   0.60479   0.75844 
C          C       0.65507   0.56595   0.63471 
C          C       0.65475   0.61870   0.80307 
C          C       0.67823   0.57986   0.67931 
H          H       0.65519   0.54647   0.57166 
C          C       0.67807   0.60501   0.75940 
H          H       0.65462   0.63819   0.86605 
O          O       0.70443   0.57206   0.65407 
O          O       0.70418   0.61306   0.78553 
B          B       0.71994   0.59264   0.72002 
C          C       0.74967   0.59275   0.72004 
C          C       0.76373   0.57219   0.64036 
C          C       0.76386   0.61330   0.79900 
C          C       0.79140   0.57213   0.63780 
H          H       0.75170   0.55675   0.57795 
C          C       0.79153   0.61330   0.80003 
H          H       0.75202   0.62883   0.86212 
C          C       0.80599   0.59271   0.71854 
H          H       0.80177   0.55623   0.56803 
H          H       0.80206   0.62918   0.86894 
C          C       0.40526   0.49348   0.71554 
C          C       0.38467   0.47888   0.79607 
C          C       0.42590   0.47903   0.63449 
C          C       0.38477   0.45121   0.79380 
H          H       0.36872   0.48925   0.86540 
C          C       0.42593   0.45135   0.63571 
H          H       0.44179   0.48956   0.56575 
C          C       0.40537   0.43715   0.71452 
H          H       0.36931   0.43918   0.85609 
H          H       0.44149   0.43951   0.57287 
B          B       0.40527   0.40743   0.71468 
O          O       0.38471   0.39191   0.78080 
O          O       0.42569   0.39167   0.64902 
C          C       0.39252   0.36571   0.75549 
C          C       0.41764   0.36556   0.67518 
C          C       0.37861   0.34254   0.80017 
C          C       0.43133   0.34224   0.63133 
C          C       0.39230   0.31922   0.75632 
H          H       0.35915   0.34266   0.86339 
C          C       0.41743   0.31908   0.67600 
H          H       0.45080   0.34212   0.56813 
O          O       0.38427   0.29311   0.78255 
O          O       0.42524   0.29287   0.65073 
B          B       0.40468   0.27736   0.71693 
C          C       0.40458   0.24763   0.71722 
C          C       0.38404   0.23347   0.79645 
C          C       0.42514   0.23354   0.63768 
C          C       0.38404   0.20579   0.79791 
H          H       0.36852   0.24534   0.85946 
C          C       0.42519   0.20587   0.63553 
H          H       0.44059   0.24554   0.57503 
C          C       0.40462   0.19130   0.71653 
H          H       0.36817   0.19529   0.86707 
H          H       0.44109   0.19547   0.56586 
C          C       0.30599   0.59270   0.71461 
C          C       0.29153   0.61330   0.63322 
C          C       0.29140   0.57212   0.79525 
C          C       0.26386   0.61331   0.63426 
H          H       0.30206   0.62919   0.56440 
C          C       0.26373   0.57218   0.79272 
H          H       0.30177   0.55620   0.86490 
C          C       0.24966   0.59275   0.71313 
H          H       0.25201   0.62884   0.57121 
H          H       0.25170   0.55673   0.85507 
B          B       0.21994   0.59264   0.71319 
O          O       0.20418   0.61307   0.64771 
O          O       0.20443   0.57206   0.77912 
C          C       0.17807   0.60502   0.67382 
C          C       0.17822   0.57987   0.75390 
C          C       0.15474   0.61871   0.63018 
C          C       0.15506   0.56596   0.79849 
C          C       0.13159   0.60480   0.67480 
H          H       0.15462   0.63820   0.56721 
C          C       0.13174   0.57966   0.75485 
H          H       0.15519   0.54648   0.86150 
O          O       0.10538   0.61262   0.64975 
O          O       0.10563   0.57161   0.78112 
B          B       0.08987   0.59205   0.71580 
C          C       0.06015   0.59196   0.71631 
C          C       0.04606   0.61256   0.63723 
C          C       0.04597   0.57140   0.79528 
C          C       0.01839   0.61266   0.63532 
H          H       0.05807   0.62803   0.57478 
C          C       0.01830   0.57143   0.79691 
H          H       0.05784   0.55584   0.85794 
C          C       0.00382   0.59206   0.71603 
H          H       0.00799   0.62860   0.56614 
H          H       0.00779   0.55553   0.86581 
C          C       0.40457   0.69130   0.71626 
C          C       0.42513   0.70588   0.79727 
C          C       0.38397   0.70578   0.63487 
C          C       0.42505   0.73355   0.79513 
H          H       0.44103   0.69549   0.86693 
C          C       0.38395   0.73345   0.63636 
H          H       0.36811   0.69526   0.56571 
C          C       0.40448   0.74763   0.71562 
H          H       0.44048   0.74557   0.85780 
H          H       0.36842   0.74531   0.57335 
B          B       0.40457   0.77735   0.71607 
O          O       0.42512   0.79286   0.78232 
O          O       0.38415   0.79311   0.65054 
C          C       0.41731   0.81907   0.75722 
C          C       0.39218   0.81922   0.67691 
C          C       0.43121   0.84223   0.80199 
C          C       0.37849   0.84255   0.63319 
C          C       0.41752   0.86556   0.75825 
H          H       0.45068   0.84211   0.86518 
C          C       0.39239   0.86571   0.67796 
H          H       0.35902   0.84267   0.56998 
O          O       0.42556   0.89167   0.78450 
O          O       0.38459   0.89191   0.65275 
B          B       0.40515   0.90742   0.71889 
C          C       0.40526   0.93715   0.71907 
C          C       0.42583   0.95133   0.79785 
C          C       0.38467   0.95122   0.63975 
C          C       0.42582   0.97901   0.79903 
H          H       0.44138   0.93949   0.86069 
C          C       0.38459   0.97889   0.63743 
H          H       0.36920   0.93919   0.57748 
C          C       0.40519   0.99348   0.71795 
H          H       0.44172   0.98953   0.86775 
H          H       0.36865   0.98927   0.56809 
C          C       0.83556   0.59273   0.71741 
C          C       0.84925   0.61698   0.68534 
C          C       0.84872   0.56811   0.74931 
C          C       0.83655   0.64160   0.62844 
N          N       0.87581   0.62148   0.71162 
C          C       0.83695   0.54376   0.80750 
N          N       0.87521   0.56269   0.72130 
C          C       0.85567   0.66072   0.62816 
H          H       0.81586   0.64449   0.58868 
C          C       0.88030   0.64804   0.68496 
C          C       0.85631   0.52439   0.80711 
H          H       0.81636   0.54082   0.84858 
C          C       0.88064   0.53619   0.74868 
H          H       0.85278   0.68140   0.58804 
C          C       0.90456   0.66174   0.71673 
H          H       0.85339   0.50378   0.84775 
C          C       0.90525   0.52305   0.71617 
C          C       0.92919   0.64859   0.74859 
C          C       0.92948   0.53676   0.68387 
C          C       0.95354   0.66038   0.80663 
N          N       0.93460   0.62210   0.72068 
C          C       0.95408   0.52410   0.62628 
N          N       0.93399   0.56332   0.71055 
C          C       0.97292   0.64102   0.80624 
H          H       0.95648   0.68097   0.84759 
C          C       0.96111   0.61668   0.74800 
C          C       0.97319   0.54322   0.62600 
H          H       0.95695   0.50343   0.58604 
C          C       0.96053   0.56783   0.68350 
H          H       0.99353   0.64395   0.84680 
C          C       0.97425   0.59207   0.71553 
H          H       0.99385   0.54036   0.58542 
C          C       0.40460   0.16174   0.71585 
C          C       0.42922   0.14858   0.74782 
C          C       0.38034   0.14804   0.68422 
C          C       0.45358   0.16037   0.80576 
N          N       0.43462   0.12208   0.72023 
C          C       0.35571   0.16072   0.62732 
N          N       0.37583   0.12149   0.71121 
C          C       0.47294   0.14100   0.80568 
H          H       0.45653   0.18098   0.84645 
C          C       0.46113   0.11665   0.74767 
C          C       0.33658   0.14161   0.62793 
H          H       0.35283   0.18138   0.58693 
C          C       0.34926   0.11700   0.68507 
H          H       0.49355   0.14392   0.84630 
C          C       0.47425   0.09203   0.71546 
H          H       0.31588   0.14451   0.58827 
C          C       0.33556   0.09276   0.71740 
C          C       0.46052   0.06778   0.68371 
C          C       0.34871   0.06815   0.74955 
C          C       0.47316   0.04316   0.62645 
N          N       0.43397   0.06329   0.71089 
C          C       0.33692   0.04381   0.80800 
N          N       0.37520   0.06271   0.72166 
C          C       0.45404   0.02404   0.62707 
H          H       0.49381   0.04028   0.58578 
C          C       0.42945   0.03673   0.68455 
C          C       0.35628   0.02444   0.80790 
H          H       0.31632   0.04090   0.84900 
C          C       0.38061   0.03621   0.74939 
H          H       0.45690   0.00335   0.58714 
C          C       0.40521   0.02305   0.71700 
H          H       0.35334   0.00384   0.84885 
C          C       0.90526   0.49348   0.71685 
C          C       0.88467   0.47889   0.63621 
C          C       0.92590   0.47902   0.79781 
C          C       0.88478   0.45122   0.63827 
H          H       0.86872   0.48927   0.56698 
C          C       0.92594   0.45134   0.79636 
H          H       0.94179   0.48954   0.86664 
C          C       0.90538   0.43715   0.71744 
H          H       0.86932   0.43919   0.57590 
H          H       0.94150   0.43950   0.85912 
B          B       0.90529   0.40743   0.71705 
O          O       0.88472   0.39192   0.65085 
O          O       0.92570   0.39166   0.78262 
C          C       0.89252   0.36572   0.67603 
C          C       0.91765   0.36556   0.75632 
C          C       0.87862   0.34256   0.63130 
C          C       0.93133   0.34222   0.80011 
C          C       0.89230   0.31923   0.67508 
H          H       0.85915   0.34269   0.56809 
C          C       0.91742   0.31907   0.75539 
H          H       0.95080   0.34210   0.86332 
O          O       0.88425   0.29312   0.64885 
O          O       0.92522   0.29286   0.78066 
B          B       0.90465   0.27736   0.71450 
C          C       0.90454   0.24763   0.71435 
C          C       0.88399   0.23345   0.63525 
C          C       0.92509   0.23355   0.79400 
C          C       0.88399   0.20578   0.63404 
H          H       0.86847   0.24531   0.57212 
C          C       0.92515   0.20589   0.79643 
H          H       0.94054   0.24558   0.85655 
C          C       0.90458   0.19131   0.71553 
H          H       0.86813   0.19526   0.56500 
H          H       0.94104   0.19550   0.86619 
C          C       0.90458   0.69131   0.71767 
C          C       0.88399   0.70578   0.79916 
C          C       0.92515   0.70589   0.63677 
C          C       0.88399   0.73345   0.79795 
H          H       0.86813   0.69526   0.86819 
C          C       0.92509   0.73356   0.63919 
H          H       0.94104   0.69551   0.56702 
C          C       0.90454   0.74763   0.71885 
H          H       0.86847   0.74531   0.86107 
H          H       0.94053   0.74558   0.57664 
B          B       0.90465   0.77736   0.71869 
O          O       0.88424   0.79312   0.78434 
O          O       0.92522   0.79286   0.65255 
C          C       0.89229   0.81923   0.75812 
C          C       0.91742   0.81907   0.67782 
C          C       0.87861   0.84256   0.80191 
C          C       0.93133   0.84223   0.63311 
C          C       0.89252   0.86572   0.75718 
H          H       0.85914   0.84268   0.86511 
C          C       0.91765   0.86556   0.67689 
H          H       0.95080   0.84210   0.56990 
O          O       0.88472   0.89192   0.78236 
O          O       0.92569   0.89167   0.65061 
B          B       0.90528   0.90743   0.71616 
C          C       0.90537   0.93715   0.71577 
C          C       0.88477   0.95122   0.79494 
C          C       0.92593   0.95134   0.63685 
C          C       0.88466   0.97889   0.79699 
H          H       0.86931   0.93919   0.85731 
C          C       0.92589   0.97902   0.63540 
H          H       0.94149   0.93950   0.57409 
C          C       0.90525   0.99348   0.71636 
H          H       0.86871   0.98927   0.86622 
H          H       0.94178   0.98954   0.56657 
C          C       0.90456   0.16174   0.71645 
C          C       0.88030   0.14804   0.74823 
C          C       0.92919   0.14859   0.68461 
C          C       0.85567   0.16072   0.80504 
N          N       0.87581   0.12149   0.72157 
C          C       0.95354   0.16038   0.62658 
N          N       0.93460   0.12210   0.71250 
C          C       0.83655   0.14160   0.80476 
H          H       0.85279   0.18140   0.84516 
C          C       0.84924   0.11699   0.74785 
C          C       0.97291   0.14102   0.62698 
H          H       0.95648   0.18097   0.58561 
C          C       0.96111   0.11668   0.68521 
H          H       0.81586   0.14449   0.84452 
C          C       0.83556   0.09273   0.71578 
H          H       0.99353   0.14395   0.58643 
C          C       0.97425   0.09207   0.71768 
C          C       0.84872   0.06811   0.68390 
C          C       0.96053   0.06783   0.74969 
C          C       0.83694   0.04376   0.62569 
N          N       0.87521   0.06270   0.71191 
C          C       0.97318   0.04322   0.80721 
N          N       0.93398   0.06332   0.72266 
C          C       0.85630   0.02439   0.62611 
H          H       0.81635   0.04083   0.58463 
C          C       0.88063   0.03619   0.68452 
C          C       0.95407   0.02410   0.80693 
H          H       0.99384   0.04036   0.84778 
C          C       0.92948   0.03676   0.74934 
H          H       0.85338   0.00378   0.58546 
C          C       0.90524   0.02305   0.71704 
H          H       0.95694   0.00343   0.84717 
C          C       0.50382   0.09201   0.71596 
C          C       0.51829   0.07138   0.79699 
C          C       0.51840   0.11258   0.63511 
C          C       0.54596   0.07134   0.79537 
H          H       0.50777   0.05550   0.86602 
C          C       0.54606   0.11248   0.63708 
H          H       0.50801   0.12852   0.56580 
C          C       0.56014   0.09189   0.71628 
H          H       0.55781   0.05578   0.85814 
H          H       0.55808   0.12793   0.57457 
B          B       0.58987   0.09198   0.71578 
O          O       0.60563   0.07155   0.78113 
O          O       0.60537   0.11255   0.64969 
C          C       0.63174   0.07961   0.75485 
C          C       0.63158   0.10475   0.67476 
C          C       0.65507   0.06592   0.79850 
C          C       0.65473   0.11867   0.63014 
C          C       0.67823   0.07984   0.75391 
H          H       0.65520   0.04644   0.86155 
C          C       0.67806   0.10498   0.67381 
H          H       0.65460   0.13816   0.56714 
O          O       0.70443   0.07205   0.77914 
O          O       0.70417   0.11305   0.64768 
B          B       0.71994   0.09263   0.71321 
C          C       0.74966   0.09276   0.71316 
C          C       0.76373   0.07220   0.79284 
C          C       0.76385   0.11331   0.63421 
C          C       0.79139   0.07213   0.79541 
H          H       0.75169   0.05675   0.85525 
C          C       0.79153   0.11330   0.63317 
H          H       0.75201   0.12884   0.57108 
C          C       0.80599   0.09271   0.71467 
H          H       0.80177   0.05623   0.86518 
H          H       0.80206   0.12918   0.56427 
C          C       0.30599   0.09276   0.71853 
C          C       0.29138   0.07217   0.63793 
C          C       0.29154   0.11337   0.79987 
C          C       0.26372   0.07225   0.64050 
H          H       0.30175   0.05625   0.56829 
C          C       0.26386   0.11338   0.79889 
H          H       0.30207   0.12925   0.86863 
C          C       0.24966   0.09282   0.72007 
H          H       0.25168   0.05680   0.57819 
H          H       0.25203   0.12892   0.86194 
B          B       0.21994   0.09270   0.72003 
O          O       0.20443   0.07212   0.65412 
O          O       0.20417   0.11312   0.78552 
C          C       0.17823   0.07991   0.67935 
C          C       0.17806   0.10506   0.75941 
C          C       0.15507   0.06599   0.63476 
C          C       0.15473   0.11875   0.80305 
C          C       0.13174   0.07968   0.67840 
H          H       0.15520   0.04651   0.57175 
C          C       0.13158   0.10483   0.75845 
H          H       0.15460   0.13823   0.86603 
O          O       0.10563   0.07163   0.65212 
O          O       0.10537   0.11263   0.78350 
B          B       0.08987   0.09205   0.71744 
C          C       0.06014   0.09196   0.71691 
C          C       0.04597   0.07140   0.63794 
C          C       0.04606   0.11256   0.79598 
C          C       0.01830   0.07142   0.63631 
H          H       0.05783   0.05584   0.57528 
C          C       0.01839   0.11265   0.79790 
H          H       0.05807   0.12802   0.85841 
C          C       0.00382   0.09206   0.71718 
H          H       0.00779   0.05553   0.56741 
H          H       0.00799   0.12860   0.86707 
H          H       0.42089   0.60838   0.75648 
H          H       0.38892   0.57641   0.75567 
H          H       0.92088   0.60839   0.67681 
H          H       0.88892   0.57642   0.67730 
H          H       0.42089   0.10837   0.67649 
H          H       0.38891   0.07641   0.67753 
H          H       0.92088   0.10839   0.75637 
H          H       0.88891   0.07642   0.75591 
