data_crystal
 
_cell_length_a    50.30000
_cell_length_b    50.30000
_cell_length_c    7.80000
_cell_angle_alpha 90.00000
_cell_angle_beta  90.00000
_cell_angle_gamma 90.00000
 
_symmetry_space_group_name_Hall 'P 1'
_symmetry_space_group_name_H-M  'P 1'
 
loop_
_symmetry_equiv_pos_as_xyz
 'x,y,z' 
 
loop_
_atom_site_label
_atom_site_type_symbol
_atom_site_fract_x
_atom_site_fract_y
_atom_site_fract_z
_atom_site_charge
C          C       0.47292   0.64005   0.15296   0.0000000000
C          C       0.45370   0.65926   0.15275   0.0000000000
C          C       0.46040   0.61536   0.20368   0.0000000000
C          C       0.42900   0.64675   0.20335   0.0000000000
N          N       0.43352   0.61988   0.22261   0.0000000000
C          C       0.46037   0.56752   0.28512   0.0000000000
C          C       0.47287   0.54283   0.33620   0.0000000000
C          C       0.45366   0.52361   0.33573   0.0000000000
C          C       0.42899   0.53611   0.28447   0.0000000000
N          N       0.43351   0.56299   0.26539   0.0000000000
C          C       0.38117   0.53611   0.20231   0.0000000000
C          C       0.35650   0.52360   0.15104   0.0000000000
C          C       0.33728   0.54282   0.15086   0.0000000000
C          C       0.34977   0.56751   0.20199   0.0000000000
N          N       0.37664   0.56298   0.22157   0.0000000000
C          C       0.34974   0.61534   0.28354   0.0000000000
C          C       0.33721   0.64003   0.33433   0.0000000000
C          C       0.35643   0.65924   0.33491   0.0000000000
C          C       0.38114   0.64674   0.28431   0.0000000000
N          N       0.37662   0.61987   0.26481   0.0000000000
Zn         Zn      0.40507   0.59143   0.24359   0.0000000000
C          C       0.33616   0.59142   0.24257   0.0000000000
C          C       0.40508   0.52252   0.24334   0.0000000000
C          C       0.47398   0.59144   0.24458   0.0000000000
C          C       0.40507   0.66034   0.24389   0.0000000000
H          H       0.31638   0.53968   0.11731   0.0000000000
H          H       0.35338   0.50269   0.11763   0.0000000000
H          H       0.45679   0.50269   0.36893   0.0000000000
H          H       0.49376   0.53970   0.36995   0.0000000000
H          H       0.49384   0.64320   0.11994   0.0000000000
H          H       0.45684   0.68018   0.11952   0.0000000000
H          H       0.35329   0.68015   0.36841   0.0000000000
H          H       0.31627   0.64318   0.36711   0.0000000000
C          C       0.50367   0.59144   0.24498   0.0000000000
C          C       0.51829   0.57102   0.16295   0.0000000000
C          C       0.51822   0.61187   0.32738   0.0000000000
C          C       0.54598   0.57104   0.16520   0.0000000000
H          H       0.50789   0.55521   0.09248   0.0000000000
C          C       0.54592   0.61187   0.32588   0.0000000000
H          H       0.50777   0.62767   0.39753   0.0000000000
C          C       0.56018   0.59146   0.24572   0.0000000000
H          H       0.55787   0.55560   0.10155   0.0000000000
H          H       0.55774   0.62733   0.38988   0.0000000000
B          B       0.58992   0.59146   0.24595   0.0000000000
O          O       0.60560   0.57100   0.17991   0.0000000000
O          O       0.60560   0.61190   0.31214   0.0000000000
C          C       0.63179   0.57889   0.20580   0.0000000000
C          C       0.63179   0.60399   0.28640   0.0000000000
C          C       0.65507   0.56513   0.16146   0.0000000000
C          C       0.65507   0.61775   0.33076   0.0000000000
C          C       0.67835   0.57889   0.20580   0.0000000000
H          H       0.65507   0.54568   0.09798   0.0000000000
C          C       0.67835   0.60399   0.28641   0.0000000000
H          H       0.65508   0.63720   0.39422   0.0000000000
O          O       0.70454   0.57099   0.17991   0.0000000000
O          O       0.70455   0.61189   0.31217   0.0000000000
B          B       0.72022   0.59144   0.24597   0.0000000000
C          C       0.74996   0.59144   0.24573   0.0000000000
C          C       0.76416   0.57104   0.16499   0.0000000000
C          C       0.76422   0.61183   0.32610   0.0000000000
C          C       0.79186   0.57102   0.16270   0.0000000000
H          H       0.75228   0.55561   0.10117   0.0000000000
C          C       0.79192   0.61183   0.32761   0.0000000000
H          H       0.75240   0.62727   0.39025   0.0000000000
C          C       0.80647   0.59142   0.24497   0.0000000000
H          H       0.80225   0.55524   0.09200   0.0000000000
H          H       0.80237   0.62761   0.39795   0.0000000000
C          C       0.40509   0.49282   0.24329   0.0000000000
C          C       0.38464   0.47823   0.32518   0.0000000000
C          C       0.42555   0.47825   0.16134   0.0000000000
C          C       0.38467   0.45053   0.32327   0.0000000000
H          H       0.36880   0.48864   0.39521   0.0000000000
C          C       0.42554   0.45055   0.16314   0.0000000000
H          H       0.44138   0.48868   0.09132   0.0000000000
C          C       0.40511   0.43632   0.24317   0.0000000000
H          H       0.36919   0.43867   0.38681   0.0000000000
H          H       0.44102   0.43871   0.09953   0.0000000000
B          B       0.40512   0.40658   0.24302   0.0000000000
O          O       0.38467   0.39088   0.30907   0.0000000000
O          O       0.42557   0.39091   0.17680   0.0000000000
C          C       0.39257   0.36470   0.28310   0.0000000000
C          C       0.41767   0.36471   0.20249   0.0000000000
C          C       0.37882   0.34141   0.32738   0.0000000000
C          C       0.43144   0.34144   0.15801   0.0000000000
C          C       0.39259   0.31814   0.28291   0.0000000000
H          H       0.35938   0.34140   0.39090   0.0000000000
C          C       0.41769   0.31816   0.20229   0.0000000000
H          H       0.45088   0.34146   0.09449   0.0000000000
O          O       0.38470   0.29194   0.30867   0.0000000000
O          O       0.42559   0.29197   0.17636   0.0000000000
B          B       0.40515   0.27627   0.24248   0.0000000000
C          C       0.40516   0.24653   0.24247   0.0000000000
C          C       0.38474   0.23233   0.32293   0.0000000000
C          C       0.42555   0.23229   0.16207   0.0000000000
C          C       0.38471   0.20463   0.32494   0.0000000000
H          H       0.36930   0.24421   0.38673   0.0000000000
C          C       0.42554   0.20459   0.16026   0.0000000000
H          H       0.44101   0.24412   0.09816   0.0000000000
C          C       0.40512   0.19003   0.24264   0.0000000000
H          H       0.36891   0.19423   0.39538   0.0000000000
H          H       0.44133   0.19416   0.08985   0.0000000000
C          C       0.30647   0.59142   0.24214   0.0000000000
C          C       0.29192   0.61184   0.15959   0.0000000000
C          C       0.29185   0.57101   0.32432   0.0000000000
C          C       0.26422   0.61184   0.16109   0.0000000000
H          H       0.30237   0.62763   0.08934   0.0000000000
C          C       0.26416   0.57104   0.32207   0.0000000000
H          H       0.30225   0.55522   0.39493   0.0000000000
C          C       0.24996   0.59144   0.24141   0.0000000000
H          H       0.25240   0.62729   0.09700   0.0000000000
H          H       0.25227   0.55560   0.38583   0.0000000000
B          B       0.22022   0.59145   0.24117   0.0000000000
O          O       0.20455   0.61190   0.17499   0.0000000000
O          O       0.20454   0.57099   0.30722   0.0000000000
C          C       0.17835   0.60400   0.20075   0.0000000000
C          C       0.17835   0.57890   0.28134   0.0000000000
C          C       0.15508   0.61776   0.15640   0.0000000000
C          C       0.15507   0.56514   0.32567   0.0000000000
C          C       0.13179   0.60401   0.20075   0.0000000000
H          H       0.15508   0.63721   0.09295   0.0000000000
C          C       0.13179   0.57890   0.28134   0.0000000000
H          H       0.15506   0.54569   0.38914   0.0000000000
O          O       0.10560   0.61191   0.17500   0.0000000000
O          O       0.10560   0.57101   0.30721   0.0000000000
B          B       0.08992   0.59147   0.24117   0.0000000000
C          C       0.06018   0.59147   0.24139   0.0000000000
C          C       0.04592   0.61189   0.16132   0.0000000000
C          C       0.04598   0.57104   0.32180   0.0000000000
C          C       0.01822   0.61189   0.15982   0.0000000000
H          H       0.05774   0.62736   0.09743   0.0000000000
C          C       0.01829   0.57101   0.32403   0.0000000000
H          H       0.05787   0.55559   0.38538   0.0000000000
C          C       0.00368   0.59145   0.24211   0.0000000000
H          H       0.00777   0.62770   0.08979   0.0000000000
H          H       0.00789   0.55519   0.39439   0.0000000000
C          C       0.40506   0.69003   0.24397   0.0000000000
C          C       0.42547   0.70461   0.32634   0.0000000000
C          C       0.38464   0.70461   0.16167   0.0000000000
C          C       0.42545   0.73231   0.32454   0.0000000000
H          H       0.44127   0.69419   0.39673   0.0000000000
C          C       0.38464   0.73231   0.16370   0.0000000000
H          H       0.36885   0.69419   0.09120   0.0000000000
C          C       0.40504   0.74653   0.24420   0.0000000000
H          H       0.44090   0.74416   0.38847   0.0000000000
H          H       0.36918   0.74416   0.09989   0.0000000000
B          B       0.40502   0.77627   0.24436   0.0000000000
O          O       0.42546   0.79196   0.31058   0.0000000000
O          O       0.38456   0.79195   0.17830   0.0000000000
C          C       0.41754   0.81815   0.28486   0.0000000000
C          C       0.39245   0.81815   0.20423   0.0000000000
C          C       0.43129   0.84143   0.32927   0.0000000000
C          C       0.37868   0.84142   0.15993   0.0000000000
C          C       0.41753   0.86471   0.28494   0.0000000000
H          H       0.45074   0.84144   0.39277   0.0000000000
C          C       0.39243   0.86470   0.20432   0.0000000000
H          H       0.35923   0.84142   0.09639   0.0000000000
O          O       0.42543   0.89090   0.31072   0.0000000000
O          O       0.38452   0.89089   0.17848   0.0000000000
B          B       0.40498   0.90658   0.24455   0.0000000000
C          C       0.40499   0.93632   0.24443   0.0000000000
C          C       0.42543   0.95054   0.32443   0.0000000000
C          C       0.38455   0.95055   0.16430   0.0000000000
C          C       0.42547   0.97824   0.32615   0.0000000000
H          H       0.44090   0.93868   0.38805   0.0000000000
C          C       0.38455   0.97824   0.16234   0.0000000000
H          H       0.36906   0.93870   0.10079   0.0000000000
C          C       0.40502   0.99282   0.24420   0.0000000000
H          H       0.44131   0.98866   0.39617   0.0000000000
H          H       0.36872   0.98867   0.09229   0.0000000000
C          C       0.83616   0.59143   0.24454   0.0000000000
C          C       0.84973   0.61536   0.20372   0.0000000000
C          C       0.84977   0.56750   0.28493   0.0000000000
C          C       0.83721   0.64005   0.15312   0.0000000000
N          N       0.87662   0.61988   0.22252   0.0000000000
C          C       0.83728   0.54281   0.33586   0.0000000000
N          N       0.87664   0.56298   0.26525   0.0000000000
C          C       0.85643   0.65926   0.15275   0.0000000000
H          H       0.81628   0.64320   0.12032   0.0000000000
C          C       0.88113   0.64675   0.20325   0.0000000000
C          C       0.85650   0.52359   0.33543   0.0000000000
H          H       0.81638   0.53966   0.36947   0.0000000000
C          C       0.88117   0.53611   0.28425   0.0000000000
H          H       0.85328   0.68018   0.11947   0.0000000000
C          C       0.90507   0.66034   0.24376   0.0000000000
H          H       0.85337   0.50267   0.36859   0.0000000000
C          C       0.90508   0.52252   0.24311   0.0000000000
C          C       0.92899   0.64675   0.28419   0.0000000000
C          C       0.92898   0.53613   0.20211   0.0000000000
C          C       0.95369   0.65925   0.33490   0.0000000000
N          N       0.93352   0.61988   0.26471   0.0000000000
C          C       0.95365   0.52363   0.15075   0.0000000000
N          N       0.93351   0.56300   0.22141   0.0000000000
C          C       0.97292   0.64004   0.33448   0.0000000000
H          H       0.95684   0.68016   0.36834   0.0000000000
C          C       0.96040   0.61536   0.28357   0.0000000000
C          C       0.97287   0.54286   0.15052   0.0000000000
H          H       0.95679   0.50272   0.11732   0.0000000000
C          C       0.96038   0.56753   0.20177   0.0000000000
H          H       0.99384   0.64319   0.36747   0.0000000000
C          C       0.97398   0.59145   0.24249   0.0000000000
H          H       0.99377   0.53972   0.11678   0.0000000000
Zn         Zn      0.90507   0.59144   0.24348   0.0000000000
C          C       0.40510   0.16034   0.24279   0.0000000000
C          C       0.42903   0.14674   0.28338   0.0000000000
C          C       0.38117   0.14675   0.20242   0.0000000000
C          C       0.45373   0.15924   0.33395   0.0000000000
N          N       0.43353   0.11986   0.26425   0.0000000000
C          C       0.35647   0.15926   0.15181   0.0000000000
N          N       0.37663   0.11988   0.22209   0.0000000000
C          C       0.47294   0.14002   0.33384   0.0000000000
H          H       0.45689   0.18016   0.36711   0.0000000000
C          C       0.46041   0.11533   0.28319   0.0000000000
C          C       0.33723   0.14006   0.15255   0.0000000000
H          H       0.35334   0.18016   0.11817   0.0000000000
C          C       0.34974   0.11538   0.20345   0.0000000000
H          H       0.49386   0.14316   0.36686   0.0000000000
C          C       0.47398   0.09140   0.24238   0.0000000000
H          H       0.31630   0.14322   0.11983   0.0000000000
C          C       0.33616   0.09147   0.24454   0.0000000000
C          C       0.46036   0.06748   0.20197   0.0000000000
C          C       0.34976   0.06755   0.28521   0.0000000000
C          C       0.47284   0.04278   0.15102   0.0000000000
N          N       0.43349   0.06297   0.22176   0.0000000000
C          C       0.33725   0.04287   0.33644   0.0000000000
N          N       0.37662   0.06300   0.26564   0.0000000000
C          C       0.45361   0.02357   0.15164   0.0000000000
H          H       0.49373   0.03963   0.11721   0.0000000000
C          C       0.42895   0.03609   0.20286   0.0000000000
C          C       0.35646   0.02365   0.33635   0.0000000000
H          H       0.31635   0.03974   0.37000   0.0000000000
C          C       0.38114   0.03613   0.28502   0.0000000000
H          H       0.45674   0.00264   0.11861   0.0000000000
C          C       0.40504   0.02252   0.24405   0.0000000000
H          H       0.35332   0.00274   0.36985   0.0000000000
Zn         Zn      0.40507   0.09143   0.24343   0.0000000000
C          C       0.90509   0.49283   0.24293   0.0000000000
C          C       0.88465   0.47825   0.16093   0.0000000000
C          C       0.92556   0.47824   0.32477   0.0000000000
C          C       0.88468   0.45055   0.16259   0.0000000000
H          H       0.86880   0.48867   0.09098   0.0000000000
C          C       0.92555   0.45055   0.32275   0.0000000000
H          H       0.94139   0.48866   0.39490   0.0000000000
C          C       0.90512   0.43632   0.24259   0.0000000000
H          H       0.86920   0.43870   0.09895   0.0000000000
H          H       0.94104   0.43869   0.38626   0.0000000000
B          B       0.90513   0.40658   0.24249   0.0000000000
O          O       0.88468   0.39090   0.17635   0.0000000000
O          O       0.92558   0.39090   0.30861   0.0000000000
C          C       0.89257   0.36471   0.20217   0.0000000000
C          C       0.91767   0.36471   0.28280   0.0000000000
C          C       0.87881   0.34143   0.15785   0.0000000000
C          C       0.93143   0.34143   0.32720   0.0000000000
C          C       0.89257   0.31815   0.20226   0.0000000000
H          H       0.85937   0.34143   0.09434   0.0000000000
C          C       0.91766   0.31815   0.28289   0.0000000000
H          H       0.95087   0.34143   0.39072   0.0000000000
O          O       0.88466   0.29196   0.17652   0.0000000000
O          O       0.92556   0.29196   0.30880   0.0000000000
B          B       0.90510   0.27628   0.24271   0.0000000000
C          C       0.90509   0.24654   0.24286   0.0000000000
C          C       0.88468   0.23231   0.16252   0.0000000000
C          C       0.92549   0.23232   0.32339   0.0000000000
C          C       0.88466   0.20461   0.16079   0.0000000000
H          H       0.86924   0.24416   0.09858   0.0000000000
C          C       0.92549   0.20462   0.32548   0.0000000000
H          H       0.94094   0.24418   0.38718   0.0000000000
C          C       0.90507   0.19004   0.24321   0.0000000000
H          H       0.86886   0.19419   0.09045   0.0000000000
H          H       0.94128   0.19420   0.39600   0.0000000000
C          C       0.90507   0.69004   0.24391   0.0000000000
C          C       0.88466   0.70461   0.32634   0.0000000000
C          C       0.92549   0.70462   0.16164   0.0000000000
C          C       0.88468   0.73231   0.32461   0.0000000000
H          H       0.86886   0.69419   0.39667   0.0000000000
C          C       0.92549   0.73232   0.16373   0.0000000000
H          H       0.94128   0.69420   0.09112   0.0000000000
C          C       0.90509   0.74654   0.24426   0.0000000000
H          H       0.86923   0.74416   0.38854   0.0000000000
H          H       0.94094   0.74418   0.09994   0.0000000000
B          B       0.90510   0.77628   0.24441   0.0000000000
O          O       0.88466   0.79196   0.31061   0.0000000000
O          O       0.92556   0.79196   0.17833   0.0000000000
C          C       0.89256   0.81815   0.28488   0.0000000000
C          C       0.91766   0.81815   0.20425   0.0000000000
C          C       0.87881   0.84143   0.32928   0.0000000000
C          C       0.93143   0.84143   0.15994   0.0000000000
C          C       0.89257   0.86471   0.28497   0.0000000000
H          H       0.85936   0.84143   0.39280   0.0000000000
C          C       0.91767   0.86471   0.20434   0.0000000000
H          H       0.95087   0.84143   0.09641   0.0000000000
O          O       0.88467   0.89090   0.31077   0.0000000000
O          O       0.92557   0.89090   0.17854   0.0000000000
B          B       0.90512   0.90658   0.24464   0.0000000000
C          C       0.90512   0.93632   0.24455   0.0000000000
C          C       0.88467   0.95055   0.32454   0.0000000000
C          C       0.92555   0.95055   0.16439   0.0000000000
C          C       0.88464   0.97825   0.32621   0.0000000000
H          H       0.86920   0.93870   0.38818   0.0000000000
C          C       0.92555   0.97824   0.16236   0.0000000000
H          H       0.94103   0.93869   0.10088   0.0000000000
C          C       0.90509   0.99283   0.24421   0.0000000000
H          H       0.86880   0.98867   0.39616   0.0000000000
H          H       0.94138   0.98866   0.09223   0.0000000000
C          C       0.90506   0.16034   0.24336   0.0000000000
C          C       0.88113   0.14675   0.28388   0.0000000000
C          C       0.92899   0.14675   0.20292   0.0000000000
C          C       0.85643   0.15926   0.33436   0.0000000000
N          N       0.87661   0.11988   0.26459   0.0000000000
C          C       0.95369   0.15925   0.15222   0.0000000000
N          N       0.93351   0.11988   0.22243   0.0000000000
C          C       0.83720   0.14005   0.33398   0.0000000000
H          H       0.85328   0.18018   0.36766   0.0000000000
C          C       0.84973   0.11536   0.28336   0.0000000000
C          C       0.97291   0.14004   0.15267   0.0000000000
H          H       0.95683   0.18016   0.11876   0.0000000000
C          C       0.96040   0.11536   0.20358   0.0000000000
H          H       0.81627   0.14321   0.36677   0.0000000000
C          C       0.83616   0.09143   0.24255   0.0000000000
H          H       0.99384   0.14319   0.11968   0.0000000000
C          C       0.97398   0.09144   0.24467   0.0000000000
C          C       0.84977   0.06751   0.20217   0.0000000000
C          C       0.96037   0.06753   0.28537   0.0000000000
C          C       0.83728   0.04281   0.15125   0.0000000000
N          N       0.87663   0.06298   0.22186   0.0000000000
C          C       0.97286   0.04285   0.33663   0.0000000000
N          N       0.93351   0.06300   0.26572   0.0000000000
C          C       0.85650   0.02359   0.15171   0.0000000000
H          H       0.81638   0.03966   0.11761   0.0000000000
C          C       0.88117   0.03611   0.20289   0.0000000000
C          C       0.95365   0.02363   0.33638   0.0000000000
H          H       0.99376   0.03972   0.37036   0.0000000000
C          C       0.92898   0.03613   0.28502   0.0000000000
H          H       0.85337   0.00267   0.11857   0.0000000000
C          C       0.90507   0.02252   0.24403   0.0000000000
H          H       0.95678   0.00272   0.36980   0.0000000000
C          C       0.50367   0.09139   0.24198   0.0000000000
C          C       0.51828   0.07097   0.32408   0.0000000000
C          C       0.51822   0.11181   0.15953   0.0000000000
C          C       0.54597   0.07099   0.32186   0.0000000000
H          H       0.50788   0.05517   0.39459   0.0000000000
C          C       0.54592   0.11181   0.16108   0.0000000000
H          H       0.50777   0.12761   0.08931   0.0000000000
C          C       0.56017   0.09140   0.24131   0.0000000000
H          H       0.55785   0.05555   0.38558   0.0000000000
H          H       0.55775   0.12727   0.09708   0.0000000000
B          B       0.58991   0.09141   0.24112   0.0000000000
O          O       0.60560   0.07096   0.30720   0.0000000000
O          O       0.60559   0.11186   0.17495   0.0000000000
C          C       0.63179   0.07886   0.28132   0.0000000000
C          C       0.63179   0.10396   0.20072   0.0000000000
C          C       0.65507   0.06511   0.32568   0.0000000000
C          C       0.65506   0.11773   0.15636   0.0000000000
C          C       0.67835   0.07887   0.28135   0.0000000000
H          H       0.65508   0.04566   0.38917   0.0000000000
C          C       0.67834   0.10397   0.20072   0.0000000000
H          H       0.65506   0.13718   0.09291   0.0000000000
O          O       0.70454   0.07098   0.30723   0.0000000000
O          O       0.70454   0.11188   0.17497   0.0000000000
B          B       0.72022   0.09144   0.24117   0.0000000000
C          C       0.74996   0.09144   0.24139   0.0000000000
C          C       0.76416   0.07105   0.32211   0.0000000000
C          C       0.76421   0.11183   0.16100   0.0000000000
C          C       0.79185   0.07102   0.32440   0.0000000000
H          H       0.75227   0.05562   0.38595   0.0000000000
C          C       0.79191   0.11184   0.15949   0.0000000000
H          H       0.75240   0.12728   0.09685   0.0000000000
C          C       0.80646   0.09143   0.24213   0.0000000000
H          H       0.80225   0.05524   0.39509   0.0000000000
H          H       0.80237   0.12762   0.08913   0.0000000000
C          C       0.30646   0.09147   0.24495   0.0000000000
C          C       0.29185   0.07106   0.16284   0.0000000000
C          C       0.29192   0.11190   0.32745   0.0000000000
C          C       0.26415   0.07109   0.16512   0.0000000000
H          H       0.30224   0.05526   0.09229   0.0000000000
C          C       0.26422   0.11190   0.32599   0.0000000000
H          H       0.30237   0.12769   0.39764   0.0000000000
C          C       0.24996   0.09150   0.24575   0.0000000000
H          H       0.25226   0.05565   0.10141   0.0000000000
H          H       0.25240   0.12735   0.39005   0.0000000000
B          B       0.22022   0.09149   0.24600   0.0000000000
O          O       0.20454   0.07103   0.17995   0.0000000000
O          O       0.20454   0.11194   0.31218   0.0000000000
C          C       0.17835   0.07892   0.20584   0.0000000000
C          C       0.17834   0.10403   0.28643   0.0000000000
C          C       0.15507   0.06516   0.16152   0.0000000000
C          C       0.15506   0.11778   0.33077   0.0000000000
C          C       0.13179   0.07892   0.20584   0.0000000000
H          H       0.15508   0.04571   0.09804   0.0000000000
C          C       0.13178   0.10402   0.28642   0.0000000000
H          H       0.15506   0.13723   0.39421   0.0000000000
O          O       0.10560   0.07101   0.17997   0.0000000000
O          O       0.10559   0.11192   0.31216   0.0000000000
B          B       0.08991   0.09147   0.24599   0.0000000000
C          C       0.06017   0.09147   0.24576   0.0000000000
C          C       0.04598   0.07104   0.16535   0.0000000000
C          C       0.04592   0.11188   0.32582   0.0000000000
C          C       0.01828   0.07101   0.16313   0.0000000000
H          H       0.05786   0.05558   0.10176   0.0000000000
C          C       0.01822   0.11189   0.32732   0.0000000000
H          H       0.05774   0.12735   0.38972   0.0000000000
C          C       0.00367   0.09144   0.24505   0.0000000000
H          H       0.00788   0.05519   0.09276   0.0000000000
H          H       0.00777   0.12770   0.39736   0.0000000000
Zn         Zn      0.90506   0.09143   0.24364   0.0000000000
C          C       0.47292   0.64005   0.65297   0.0000000000
C          C       0.45370   0.65926   0.65275   0.0000000000
C          C       0.46040   0.61536   0.70368   0.0000000000
C          C       0.42900   0.64675   0.70335   0.0000000000
N          N       0.43352   0.61988   0.72261   0.0000000000
C          C       0.46037   0.56752   0.78512   0.0000000000
C          C       0.47287   0.54283   0.83620   0.0000000000
C          C       0.45366   0.52361   0.83573   0.0000000000
C          C       0.42899   0.53611   0.78447   0.0000000000
N          N       0.43351   0.56299   0.76539   0.0000000000
C          C       0.38117   0.53611   0.70231   0.0000000000
C          C       0.35650   0.52360   0.65104   0.0000000000
C          C       0.33728   0.54282   0.65086   0.0000000000
C          C       0.34977   0.56751   0.70199   0.0000000000
N          N       0.37664   0.56298   0.72157   0.0000000000
C          C       0.34974   0.61534   0.78354   0.0000000000
C          C       0.33721   0.64003   0.83434   0.0000000000
C          C       0.35643   0.65924   0.83491   0.0000000000
C          C       0.38114   0.64674   0.78431   0.0000000000
N          N       0.37662   0.61987   0.76481   0.0000000000
Zn         Zn      0.40507   0.59143   0.74359   0.0000000000
C          C       0.33616   0.59142   0.74257   0.0000000000
C          C       0.40508   0.52252   0.74334   0.0000000000
C          C       0.47398   0.59144   0.74458   0.0000000000
C          C       0.40507   0.66034   0.74389   0.0000000000
H          H       0.31638   0.53968   0.61731   0.0000000000
H          H       0.35338   0.50269   0.61763   0.0000000000
H          H       0.45679   0.50269   0.86893   0.0000000000
H          H       0.49376   0.53970   0.86995   0.0000000000
H          H       0.49384   0.64320   0.61994   0.0000000000
H          H       0.45684   0.68018   0.61952   0.0000000000
H          H       0.35329   0.68015   0.86841   0.0000000000
H          H       0.31627   0.64318   0.86711   0.0000000000
C          C       0.50367   0.59144   0.74498   0.0000000000
C          C       0.51829   0.57102   0.66295   0.0000000000
C          C       0.51822   0.61187   0.82738   0.0000000000
C          C       0.54598   0.57104   0.66521   0.0000000000
H          H       0.50789   0.55521   0.59247   0.0000000000
C          C       0.54592   0.61187   0.82589   0.0000000000
H          H       0.50777   0.62767   0.89753   0.0000000000
C          C       0.56018   0.59146   0.74572   0.0000000000
H          H       0.55787   0.55560   0.60155   0.0000000000
H          H       0.55774   0.62733   0.88988   0.0000000000
B          B       0.58992   0.59146   0.74595   0.0000000000
O          O       0.60560   0.57100   0.67991   0.0000000000
O          O       0.60560   0.61190   0.81214   0.0000000000
C          C       0.63179   0.57889   0.70580   0.0000000000
C          C       0.63179   0.60399   0.78640   0.0000000000
C          C       0.65507   0.56513   0.66147   0.0000000000
C          C       0.65507   0.61775   0.83076   0.0000000000
C          C       0.67835   0.57889   0.70580   0.0000000000
H          H       0.65507   0.54568   0.59798   0.0000000000
C          C       0.67835   0.60399   0.78641   0.0000000000
H          H       0.65508   0.63720   0.89422   0.0000000000
O          O       0.70454   0.57099   0.67991   0.0000000000
O          O       0.70455   0.61189   0.81217   0.0000000000
B          B       0.72022   0.59144   0.74596   0.0000000000
C          C       0.74996   0.59144   0.74573   0.0000000000
C          C       0.76416   0.57104   0.66499   0.0000000000
C          C       0.76422   0.61183   0.82611   0.0000000000
C          C       0.79186   0.57102   0.66270   0.0000000000
H          H       0.75228   0.55561   0.60117   0.0000000000
C          C       0.79192   0.61183   0.82761   0.0000000000
H          H       0.75240   0.62727   0.89025   0.0000000000
C          C       0.80647   0.59142   0.74497   0.0000000000
H          H       0.80225   0.55524   0.59200   0.0000000000
H          H       0.80237   0.62761   0.89795   0.0000000000
C          C       0.40509   0.49282   0.74329   0.0000000000
C          C       0.38464   0.47823   0.82518   0.0000000000
C          C       0.42555   0.47825   0.66135   0.0000000000
C          C       0.38467   0.45053   0.82327   0.0000000000
H          H       0.36880   0.48864   0.89521   0.0000000000
C          C       0.42554   0.45055   0.66314   0.0000000000
H          H       0.44138   0.48868   0.59132   0.0000000000
C          C       0.40511   0.43632   0.74317   0.0000000000
H          H       0.36919   0.43867   0.88681   0.0000000000
H          H       0.44102   0.43871   0.59953   0.0000000000
B          B       0.40512   0.40658   0.74302   0.0000000000
O          O       0.38467   0.39088   0.80907   0.0000000000
O          O       0.42557   0.39091   0.67680   0.0000000000
C          C       0.39257   0.36470   0.78311   0.0000000000
C          C       0.41767   0.36471   0.70249   0.0000000000
C          C       0.37882   0.34141   0.82738   0.0000000000
C          C       0.43144   0.34144   0.65802   0.0000000000
C          C       0.39259   0.31814   0.78291   0.0000000000
H          H       0.35938   0.34140   0.89090   0.0000000000
C          C       0.41769   0.31816   0.70229   0.0000000000
H          H       0.45088   0.34146   0.59449   0.0000000000
O          O       0.38470   0.29194   0.80867   0.0000000000
O          O       0.42559   0.29197   0.67636   0.0000000000
B          B       0.40515   0.27627   0.74247   0.0000000000
C          C       0.40516   0.24653   0.74247   0.0000000000
C          C       0.38474   0.23233   0.82293   0.0000000000
C          C       0.42555   0.23229   0.66207   0.0000000000
C          C       0.38471   0.20463   0.82494   0.0000000000
H          H       0.36930   0.24421   0.88673   0.0000000000
C          C       0.42554   0.20459   0.66026   0.0000000000
H          H       0.44101   0.24412   0.59816   0.0000000000
C          C       0.40512   0.19003   0.74264   0.0000000000
H          H       0.36891   0.19423   0.89539   0.0000000000
H          H       0.44133   0.19416   0.58985   0.0000000000
C          C       0.30647   0.59142   0.74214   0.0000000000
C          C       0.29192   0.61184   0.65959   0.0000000000
C          C       0.29185   0.57101   0.82432   0.0000000000
C          C       0.26422   0.61184   0.66109   0.0000000000
H          H       0.30237   0.62763   0.58934   0.0000000000
C          C       0.26416   0.57104   0.82207   0.0000000000
H          H       0.30225   0.55522   0.89493   0.0000000000
C          C       0.24996   0.59144   0.74141   0.0000000000
H          H       0.25240   0.62729   0.59700   0.0000000000
H          H       0.25227   0.55560   0.88584   0.0000000000
B          B       0.22022   0.59145   0.74117   0.0000000000
O          O       0.20455   0.61190   0.67499   0.0000000000
O          O       0.20454   0.57099   0.80722   0.0000000000
C          C       0.17835   0.60400   0.70075   0.0000000000
C          C       0.17835   0.57890   0.78134   0.0000000000
C          C       0.15508   0.61776   0.65640   0.0000000000
C          C       0.15507   0.56514   0.82567   0.0000000000
C          C       0.13179   0.60401   0.70075   0.0000000000
H          H       0.15508   0.63721   0.59295   0.0000000000
C          C       0.13179   0.57890   0.78134   0.0000000000
H          H       0.15506   0.54569   0.88914   0.0000000000
O          O       0.10560   0.61191   0.67500   0.0000000000
O          O       0.10560   0.57101   0.80721   0.0000000000
B          B       0.08992   0.59147   0.74117   0.0000000000
C          C       0.06018   0.59147   0.74139   0.0000000000
C          C       0.04592   0.61189   0.66132   0.0000000000
C          C       0.04598   0.57104   0.82180   0.0000000000
C          C       0.01822   0.61189   0.65982   0.0000000000
H          H       0.05774   0.62736   0.59743   0.0000000000
C          C       0.01829   0.57101   0.82403   0.0000000000
H          H       0.05787   0.55559   0.88538   0.0000000000
C          C       0.00368   0.59145   0.74211   0.0000000000
H          H       0.00777   0.62770   0.58979   0.0000000000
H          H       0.00789   0.55519   0.89439   0.0000000000
C          C       0.40506   0.69003   0.74396   0.0000000000
C          C       0.42547   0.70461   0.82634   0.0000000000
C          C       0.38464   0.70461   0.66167   0.0000000000
C          C       0.42545   0.73231   0.82454   0.0000000000
H          H       0.44127   0.69419   0.89673   0.0000000000
C          C       0.38464   0.73231   0.66370   0.0000000000
H          H       0.36885   0.69419   0.59120   0.0000000000
C          C       0.40504   0.74653   0.74420   0.0000000000
H          H       0.44090   0.74416   0.88847   0.0000000000
H          H       0.36918   0.74416   0.59989   0.0000000000
B          B       0.40502   0.77627   0.74436   0.0000000000
O          O       0.42546   0.79196   0.81058   0.0000000000
O          O       0.38456   0.79195   0.67830   0.0000000000
C          C       0.41754   0.81815   0.78486   0.0000000000
C          C       0.39245   0.81815   0.70423   0.0000000000
C          C       0.43129   0.84143   0.82927   0.0000000000
C          C       0.37868   0.84142   0.65993   0.0000000000
C          C       0.41753   0.86471   0.78494   0.0000000000
H          H       0.45074   0.84144   0.89277   0.0000000000
C          C       0.39243   0.86470   0.70432   0.0000000000
H          H       0.35923   0.84142   0.59639   0.0000000000
O          O       0.42543   0.89090   0.81072   0.0000000000
O          O       0.38452   0.89089   0.67848   0.0000000000
B          B       0.40498   0.90658   0.74455   0.0000000000
C          C       0.40499   0.93632   0.74443   0.0000000000
C          C       0.42543   0.95054   0.82443   0.0000000000
C          C       0.38455   0.95055   0.66430   0.0000000000
C          C       0.42547   0.97824   0.82616   0.0000000000
H          H       0.44090   0.93868   0.88805   0.0000000000
C          C       0.38455   0.97824   0.66234   0.0000000000
H          H       0.36906   0.93870   0.60079   0.0000000000
C          C       0.40502   0.99282   0.74420   0.0000000000
H          H       0.44131   0.98866   0.89617   0.0000000000
H          H       0.36872   0.98867   0.59229   0.0000000000
C          C       0.83616   0.59143   0.74454   0.0000000000
C          C       0.84973   0.61536   0.70372   0.0000000000
C          C       0.84977   0.56750   0.78493   0.0000000000
C          C       0.83721   0.64005   0.65312   0.0000000000
N          N       0.87662   0.61988   0.72252   0.0000000000
C          C       0.83728   0.54281   0.83586   0.0000000000
N          N       0.87664   0.56298   0.76525   0.0000000000
C          C       0.85643   0.65926   0.65275   0.0000000000
H          H       0.81628   0.64320   0.62032   0.0000000000
C          C       0.88113   0.64675   0.70325   0.0000000000
C          C       0.85650   0.52359   0.83543   0.0000000000
H          H       0.81638   0.53966   0.86948   0.0000000000
C          C       0.88117   0.53611   0.78425   0.0000000000
H          H       0.85328   0.68018   0.61947   0.0000000000
C          C       0.90507   0.66034   0.74376   0.0000000000
H          H       0.85337   0.50267   0.86859   0.0000000000
C          C       0.90508   0.52252   0.74311   0.0000000000
C          C       0.92899   0.64675   0.78420   0.0000000000
C          C       0.92898   0.53613   0.70211   0.0000000000
C          C       0.95369   0.65925   0.83490   0.0000000000
N          N       0.93352   0.61988   0.76471   0.0000000000
C          C       0.95365   0.52363   0.65075   0.0000000000
N          N       0.93351   0.56300   0.72141   0.0000000000
C          C       0.97292   0.64004   0.83448   0.0000000000
H          H       0.95684   0.68016   0.86835   0.0000000000
C          C       0.96040   0.61536   0.78357   0.0000000000
C          C       0.97287   0.54286   0.65052   0.0000000000
H          H       0.95679   0.50272   0.61732   0.0000000000
C          C       0.96038   0.56753   0.70177   0.0000000000
H          H       0.99384   0.64319   0.86747   0.0000000000
C          C       0.97398   0.59145   0.74249   0.0000000000
H          H       0.99377   0.53972   0.61679   0.0000000000
Zn         Zn      0.90507   0.59144   0.74348   0.0000000000
C          C       0.40510   0.16034   0.74279   0.0000000000
C          C       0.42903   0.14674   0.78339   0.0000000000
C          C       0.38117   0.14675   0.70243   0.0000000000
C          C       0.45373   0.15924   0.83395   0.0000000000
N          N       0.43353   0.11986   0.76425   0.0000000000
C          C       0.35647   0.15926   0.65181   0.0000000000
N          N       0.37663   0.11988   0.72209   0.0000000000
C          C       0.47294   0.14002   0.83384   0.0000000000
H          H       0.45689   0.18016   0.86711   0.0000000000
C          C       0.46041   0.11533   0.78320   0.0000000000
C          C       0.33723   0.14006   0.65255   0.0000000000
H          H       0.35334   0.18016   0.61817   0.0000000000
C          C       0.34974   0.11538   0.70345   0.0000000000
H          H       0.49386   0.14316   0.86686   0.0000000000
C          C       0.47398   0.09140   0.74238   0.0000000000
H          H       0.31630   0.14322   0.61984   0.0000000000
C          C       0.33616   0.09147   0.74454   0.0000000000
C          C       0.46036   0.06748   0.70197   0.0000000000
C          C       0.34976   0.06755   0.78521   0.0000000000
C          C       0.47284   0.04278   0.65102   0.0000000000
N          N       0.43349   0.06297   0.72176   0.0000000000
C          C       0.33725   0.04287   0.83644   0.0000000000
N          N       0.37662   0.06300   0.76564   0.0000000000
C          C       0.45361   0.02357   0.65164   0.0000000000
H          H       0.49373   0.03963   0.61721   0.0000000000
C          C       0.42895   0.03609   0.70286   0.0000000000
C          C       0.35646   0.02365   0.83635   0.0000000000
H          H       0.31635   0.03974   0.87000   0.0000000000
C          C       0.38114   0.03613   0.78502   0.0000000000
H          H       0.45674   0.00264   0.61861   0.0000000000
C          C       0.40504   0.02252   0.74405   0.0000000000
H          H       0.35332   0.00274   0.86985   0.0000000000
Zn         Zn      0.40507   0.09143   0.74343   0.0000000000
C          C       0.90509   0.49283   0.74293   0.0000000000
C          C       0.88465   0.47825   0.66093   0.0000000000
C          C       0.92556   0.47824   0.82477   0.0000000000
C          C       0.88468   0.45055   0.66259   0.0000000000
H          H       0.86880   0.48867   0.59098   0.0000000000
C          C       0.92555   0.45055   0.82275   0.0000000000
H          H       0.94139   0.48866   0.89490   0.0000000000
C          C       0.90512   0.43632   0.74259   0.0000000000
H          H       0.86920   0.43870   0.59895   0.0000000000
H          H       0.94104   0.43869   0.88626   0.0000000000
B          B       0.90513   0.40658   0.74249   0.0000000000
O          O       0.88468   0.39090   0.67635   0.0000000000
O          O       0.92558   0.39090   0.80861   0.0000000000
C          C       0.89257   0.36471   0.70217   0.0000000000
C          C       0.91767   0.36471   0.78280   0.0000000000
C          C       0.87881   0.34143   0.65785   0.0000000000
C          C       0.93143   0.34143   0.82720   0.0000000000
C          C       0.89257   0.31815   0.70226   0.0000000000
H          H       0.85937   0.34143   0.59434   0.0000000000
C          C       0.91766   0.31815   0.78289   0.0000000000
H          H       0.95087   0.34143   0.89072   0.0000000000
O          O       0.88466   0.29196   0.67651   0.0000000000
O          O       0.92556   0.29196   0.80880   0.0000000000
B          B       0.90510   0.27628   0.74271   0.0000000000
C          C       0.90509   0.24654   0.74286   0.0000000000
C          C       0.88468   0.23231   0.66252   0.0000000000
C          C       0.92549   0.23232   0.82339   0.0000000000
C          C       0.88466   0.20461   0.66079   0.0000000000
H          H       0.86924   0.24416   0.59858   0.0000000000
C          C       0.92549   0.20462   0.82548   0.0000000000
H          H       0.94094   0.24418   0.88718   0.0000000000
C          C       0.90507   0.19004   0.74321   0.0000000000
H          H       0.86886   0.19419   0.59045   0.0000000000
H          H       0.94128   0.19420   0.89600   0.0000000000
C          C       0.90507   0.69004   0.74391   0.0000000000
C          C       0.88466   0.70461   0.82634   0.0000000000
C          C       0.92549   0.70462   0.66164   0.0000000000
C          C       0.88468   0.73231   0.82461   0.0000000000
H          H       0.86886   0.69419   0.89667   0.0000000000
C          C       0.92549   0.73232   0.66373   0.0000000000
H          H       0.94128   0.69420   0.59112   0.0000000000
C          C       0.90509   0.74654   0.74426   0.0000000000
H          H       0.86923   0.74416   0.88854   0.0000000000
H          H       0.94094   0.74418   0.59994   0.0000000000
B          B       0.90510   0.77628   0.74441   0.0000000000
O          O       0.88466   0.79196   0.81062   0.0000000000
O          O       0.92556   0.79196   0.67834   0.0000000000
C          C       0.89256   0.81815   0.78488   0.0000000000
C          C       0.91766   0.81815   0.70425   0.0000000000
C          C       0.87881   0.84143   0.82929   0.0000000000
C          C       0.93143   0.84143   0.65994   0.0000000000
C          C       0.89257   0.86471   0.78497   0.0000000000
H          H       0.85936   0.84143   0.89280   0.0000000000
C          C       0.91767   0.86471   0.70434   0.0000000000
H          H       0.95087   0.84143   0.59641   0.0000000000
O          O       0.88467   0.89090   0.81077   0.0000000000
O          O       0.92557   0.89090   0.67854   0.0000000000
B          B       0.90512   0.90658   0.74464   0.0000000000
C          C       0.90512   0.93632   0.74455   0.0000000000
C          C       0.88467   0.95055   0.82454   0.0000000000
C          C       0.92555   0.95055   0.66439   0.0000000000
C          C       0.88464   0.97825   0.82621   0.0000000000
H          H       0.86920   0.93870   0.88818   0.0000000000
C          C       0.92555   0.97824   0.66236   0.0000000000
H          H       0.94103   0.93869   0.60088   0.0000000000
C          C       0.90509   0.99283   0.74421   0.0000000000
H          H       0.86880   0.98867   0.89616   0.0000000000
H          H       0.94138   0.98866   0.59223   0.0000000000
C          C       0.90506   0.16034   0.74336   0.0000000000
C          C       0.88113   0.14675   0.78387   0.0000000000
C          C       0.92899   0.14675   0.70293   0.0000000000
C          C       0.85643   0.15926   0.83436   0.0000000000
N          N       0.87661   0.11988   0.76459   0.0000000000
C          C       0.95369   0.15925   0.65222   0.0000000000
N          N       0.93351   0.11988   0.72242   0.0000000000
C          C       0.83720   0.14005   0.83398   0.0000000000
H          H       0.85328   0.18018   0.86766   0.0000000000
C          C       0.84973   0.11536   0.78336   0.0000000000
C          C       0.97291   0.14004   0.65267   0.0000000000
H          H       0.95683   0.18016   0.61876   0.0000000000
C          C       0.96040   0.11536   0.70358   0.0000000000
H          H       0.81627   0.14321   0.86677   0.0000000000
C          C       0.83616   0.09143   0.74255   0.0000000000
H          H       0.99384   0.14319   0.61968   0.0000000000
C          C       0.97398   0.09144   0.74467   0.0000000000
C          C       0.84977   0.06751   0.70217   0.0000000000
C          C       0.96037   0.06753   0.78538   0.0000000000
C          C       0.83728   0.04281   0.65125   0.0000000000
N          N       0.87663   0.06298   0.72186   0.0000000000
C          C       0.97286   0.04285   0.83663   0.0000000000
N          N       0.93351   0.06300   0.76572   0.0000000000
C          C       0.85650   0.02359   0.65171   0.0000000000
H          H       0.81638   0.03966   0.61762   0.0000000000
C          C       0.88117   0.03611   0.70288   0.0000000000
C          C       0.95365   0.02363   0.83639   0.0000000000
H          H       0.99376   0.03972   0.87036   0.0000000000
C          C       0.92898   0.03613   0.78502   0.0000000000
H          H       0.85337   0.00267   0.61857   0.0000000000
C          C       0.90507   0.02252   0.74403   0.0000000000
H          H       0.95678   0.00272   0.86980   0.0000000000
C          C       0.50367   0.09139   0.74198   0.0000000000
C          C       0.51828   0.07097   0.82408   0.0000000000
C          C       0.51822   0.11181   0.65953   0.0000000000
C          C       0.54597   0.07099   0.82186   0.0000000000
H          H       0.50788   0.05517   0.89459   0.0000000000
C          C       0.54592   0.11181   0.66108   0.0000000000
H          H       0.50777   0.12761   0.58931   0.0000000000
C          C       0.56017   0.09140   0.74131   0.0000000000
H          H       0.55785   0.05555   0.88558   0.0000000000
H          H       0.55775   0.12727   0.59708   0.0000000000
B          B       0.58991   0.09141   0.74112   0.0000000000
O          O       0.60560   0.07096   0.80719   0.0000000000
O          O       0.60559   0.11186   0.67495   0.0000000000
C          C       0.63179   0.07886   0.78132   0.0000000000
C          C       0.63179   0.10396   0.70072   0.0000000000
C          C       0.65507   0.06511   0.82568   0.0000000000
C          C       0.65506   0.11773   0.65636   0.0000000000
C          C       0.67835   0.07887   0.78135   0.0000000000
H          H       0.65508   0.04566   0.88917   0.0000000000
C          C       0.67834   0.10397   0.70072   0.0000000000
H          H       0.65506   0.13718   0.59291   0.0000000000
O          O       0.70454   0.07098   0.80723   0.0000000000
O          O       0.70454   0.11188   0.67497   0.0000000000
B          B       0.72022   0.09144   0.74117   0.0000000000
C          C       0.74996   0.09144   0.74139   0.0000000000
C          C       0.76416   0.07105   0.82212   0.0000000000
C          C       0.76421   0.11183   0.66100   0.0000000000
C          C       0.79185   0.07102   0.82440   0.0000000000
H          H       0.75227   0.05562   0.88595   0.0000000000
C          C       0.79191   0.11184   0.65949   0.0000000000
H          H       0.75240   0.12728   0.59685   0.0000000000
C          C       0.80646   0.09143   0.74213   0.0000000000
H          H       0.80225   0.05524   0.89509   0.0000000000
H          H       0.80237   0.12762   0.58913   0.0000000000
C          C       0.30646   0.09147   0.74495   0.0000000000
C          C       0.29185   0.07106   0.66285   0.0000000000
C          C       0.29192   0.11190   0.82745   0.0000000000
C          C       0.26415   0.07109   0.66512   0.0000000000
H          H       0.30224   0.05526   0.59229   0.0000000000
C          C       0.26422   0.11190   0.82599   0.0000000000
H          H       0.30237   0.12769   0.89764   0.0000000000
C          C       0.24996   0.09150   0.74574   0.0000000000
H          H       0.25226   0.05565   0.60141   0.0000000000
H          H       0.25240   0.12735   0.89005   0.0000000000
B          B       0.22022   0.09149   0.74600   0.0000000000
O          O       0.20454   0.07103   0.67995   0.0000000000
O          O       0.20454   0.11194   0.81218   0.0000000000
C          C       0.17835   0.07892   0.70584   0.0000000000
C          C       0.17834   0.10403   0.78644   0.0000000000
C          C       0.15507   0.06516   0.66152   0.0000000000
C          C       0.15506   0.11778   0.83077   0.0000000000
C          C       0.13179   0.07892   0.70584   0.0000000000
H          H       0.15508   0.04571   0.59804   0.0000000000
C          C       0.13178   0.10402   0.78643   0.0000000000
H          H       0.15506   0.13723   0.89421   0.0000000000
O          O       0.10560   0.07101   0.67997   0.0000000000
O          O       0.10559   0.11192   0.81216   0.0000000000
B          B       0.08991   0.09147   0.74599   0.0000000000
C          C       0.06017   0.09147   0.74576   0.0000000000
C          C       0.04598   0.07104   0.66535   0.0000000000
C          C       0.04592   0.11188   0.82582   0.0000000000
C          C       0.01828   0.07101   0.66313   0.0000000000
H          H       0.05786   0.05558   0.60176   0.0000000000
C          C       0.01822   0.11189   0.82732   0.0000000000
H          H       0.05774   0.12735   0.88972   0.0000000000
C          C       0.00367   0.09144   0.74505   0.0000000000
H          H       0.00788   0.05519   0.59276   0.0000000000
H          H       0.00777   0.12770   0.89736   0.0000000000
Zn         Zn      0.90506   0.09143   0.74364   0.0000000000
