data_HB-COF-AB
_audit_creation_date              0000-00-00
_audit_creation_method            'LanYouShi'
_symmetry_space_group_name_H-M    'P1'
_cell_length_a                    6.9000001
_cell_length_b                    68.5199966
_cell_length_c                    29.3999996
_cell_angle_alpha                 90.0000000
_cell_angle_beta                  90.0000000
_cell_angle_gamma                 90.0000000
loop_
_atom_site_label
_atom_site_type_symbol
_atom_site_fract_x
_atom_site_fract_y
_atom_site_fract_z
_atom_site_U_iso_or_equiv
_atom_site_adp_type
_atom_site_occupancy
        C1          C  0.0000000  0.6317900  0.7188001    0.00000       Uiso       1.00
        C2          C  0.0000000  0.6116201  0.7091900    0.00000       Uiso       1.00
        C3          C  0.0000000  0.5976800  0.7444701    0.00000       Uiso       1.00
        C4          C  0.0000000  0.6034400  0.7905600    0.00000       Uiso       1.00
        C5          C  0.0000000  0.6236100  0.7990300    0.00000       Uiso       1.00
        C6          C  0.0000000  0.6370800  0.7649300    0.00000       Uiso       1.00
        C7          C  0.0000000  0.5886400  0.8275800    0.00000       Uiso       1.00
        C8          C  0.0000000  0.5686001  0.8173900    0.00000       Uiso       1.00
        C9          C  0.0000000  0.5546800  0.8522400    0.00000       Uiso       1.00
       C10          C  0.0000000  0.5606400  0.8978600    0.00000       Uiso       1.00
       C11          C  0.0000000  0.5805000  0.9082200    0.00000       Uiso       1.00
       C12          C  0.0000000  0.5943500  0.8734300    0.00000       Uiso       1.00
       C13          C  0.0000000  0.6464100  0.6814600    0.00000       Uiso       1.00
       C14          C  0.0000000  0.6404600  0.6357000    0.00000       Uiso       1.00
       C15          C  0.0000000  0.6542800  0.6006200    0.00000       Uiso       1.00
       C16          C  0.0000000  0.6742100  0.6108300    0.00000       Uiso       1.00
       C17          C  0.0000000  0.6802200  0.6563000    0.00000       Uiso       1.00
       C18          C  0.0000000  0.6664600  0.6911300    0.00000       Uiso       1.00
        N1          N  0.0000000  0.6560600  0.7842400    0.00000       Uiso       1.00
       C19          C  0.0000000  0.6525900  0.8296800    0.00000       Uiso       1.00
        N2          N  0.0000000  0.6334400  0.8415000    0.00000       Uiso       1.00
       C20          C  0.0000000  0.6683700  0.8635500    0.00000       Uiso       1.00
       C21          C  0.0000000  0.6879300  0.8496300    0.00000       Uiso       1.00
       C22          C  0.0000000  0.7029101  0.8818800    0.00000       Uiso       1.00
       C23          C  0.0000000  0.6984300  0.9283900    0.00000       Uiso       1.00
       C24          C  0.0000000  0.6789300  0.9423200    0.00000       Uiso       1.00
       C25          C  0.0000000  0.6639600  0.9100800    0.00000       Uiso       1.00
       C26          C  0.0000000  0.7222100  0.5495900    0.00000       Uiso       1.00
       C27          C  0.0000000  0.5465701  0.9354300    0.00000       Uiso       1.00
        N3          N  0.0000000  0.5278800  0.9285000    0.00000       Uiso       1.00
       C28          C  0.0000000  0.5139700  0.9648900    0.00000       Uiso       1.00
       C29          C  0.0000000  0.5198401  0.0107000    0.00000       Uiso       1.00
       C30          C  0.0000000  0.5059400  0.0455000    0.00000       Uiso       1.00
       C31          C  0.0000000  0.7416400  0.5639900    0.00000       Uiso       1.00
       C32          C  0.0000000  0.7567701  0.5322400    0.00000       Uiso       1.00
       C33          C  0.0000000  0.7526200  0.4854700    0.00000       Uiso       1.00
       C34          C  0.0000000  0.7331700  0.4710100    0.00000       Uiso       1.00
       C35          C  0.0000000  0.7180001  0.5028400    0.00000       Uiso       1.00
       C36          C  0.0000000  0.6886400  0.5740300    0.00000       Uiso       1.00
        N4          N  0.0000000  0.7071500  0.5832300    0.00000       Uiso       1.00
        N5          N  0.0000000  0.7321300  0.9521900    0.00000       Uiso       1.00
       C37          C  0.0000000  0.7137900  0.9630200    0.00000       Uiso       1.00
        H1          H  0.0000000  0.6066500  0.6721801    0.00000       Uiso       1.00
        H2          H  0.0000000  0.5814400  0.7359900    0.00000       Uiso       1.00
        H3          H  0.0000000  0.5637200  0.7803200    0.00000       Uiso       1.00
        H4          H  0.0000000  0.5384600  0.8435500    0.00000       Uiso       1.00
        H5          H  0.0000000  0.5854800  0.9452201    0.00000       Uiso       1.00
        H6          H  0.0000000  0.6105701  0.8820500    0.00000       Uiso       1.00
        H7          H  0.0000000  0.6242200  0.6272900    0.00000       Uiso       1.00
        H8          H  0.0000000  0.6492801  0.5636300    0.00000       Uiso       1.00
        H9          H  0.0000000  0.6964400  0.6649400    0.00000       Uiso       1.00
       H10          H  0.0000000  0.6714200  0.7281300    0.00000       Uiso       1.00
       H11          H  0.0000000  0.6712900  0.7713900    0.00000       Uiso       1.00
       H12          H  0.0000000  0.6916000  0.8118100    0.00000       Uiso       1.00
       H13          H  0.0000000  0.7188000  0.8703800    0.00000       Uiso       1.00
       H14          H  0.0000000  0.6752000  0.9801100    0.00000       Uiso       1.00
       H15          H  0.0000000  0.6480700  0.9215800    0.00000       Uiso       1.00
       H16          H  0.0000000  0.5519500  0.9721100    0.00000       Uiso       1.00
       H17          H  0.0000000  0.5360300  0.0196600    0.00000       Uiso       1.00
       H18          H  0.0000000  0.5108200  0.0825700    0.00000       Uiso       1.00
       H19          H  0.0000000  0.7451000  0.6019200    0.00000       Uiso       1.00
       H20          H  0.0000000  0.7726001  0.5442100    0.00000       Uiso       1.00
       H21          H  0.0000000  0.7296200  0.4331300    0.00000       Uiso       1.00
       H22          H  0.0000000  0.7021800  0.4908600    0.00000       Uiso       1.00
       H23          H  0.0000000  0.6836200  0.5370700    0.00000       Uiso       1.00
       H24          H  0.0000000  0.7097400  0.0006300    0.00000       Uiso       1.00
       C38          C  0.5000000  0.1317900  0.7188001    0.00000       Uiso       1.00
       C39          C  0.5000000  0.1116200  0.7091900    0.00000       Uiso       1.00
       C40          C  0.5000000  0.0976800  0.7444701    0.00000       Uiso       1.00
       C41          C  0.5000000  0.1034400  0.7905600    0.00000       Uiso       1.00
       C42          C  0.5000000  0.1236100  0.7990300    0.00000       Uiso       1.00
       C43          C  0.5000000  0.1370800  0.7649300    0.00000       Uiso       1.00
       C44          C  0.5000000  0.0886400  0.8275800    0.00000       Uiso       1.00
       C45          C  0.5000000  0.0686000  0.8173900    0.00000       Uiso       1.00
       C46          C  0.5000000  0.0546800  0.8522400    0.00000       Uiso       1.00
       C47          C  0.5000000  0.0606400  0.8978600    0.00000       Uiso       1.00
       C48          C  0.5000000  0.0805000  0.9082200    0.00000       Uiso       1.00
       C49          C  0.5000000  0.0943500  0.8734300    0.00000       Uiso       1.00
       C50          C  0.5000000  0.1464100  0.6814600    0.00000       Uiso       1.00
       C51          C  0.5000000  0.1404600  0.6357000    0.00000       Uiso       1.00
       C52          C  0.5000000  0.1542800  0.6006200    0.00000       Uiso       1.00
       C53          C  0.5000000  0.1742100  0.6108300    0.00000       Uiso       1.00
       C54          C  0.5000000  0.1802200  0.6563000    0.00000       Uiso       1.00
       C55          C  0.5000000  0.1664600  0.6911300    0.00000       Uiso       1.00
        N6          N  0.5000000  0.1560600  0.7842400    0.00000       Uiso       1.00
       C56          C  0.5000000  0.1525900  0.8296800    0.00000       Uiso       1.00
        N7          N  0.5000000  0.1334400  0.8415000    0.00000       Uiso       1.00
       C57          C  0.5000000  0.1683700  0.8635500    0.00000       Uiso       1.00
       C58          C  0.5000000  0.1879300  0.8496300    0.00000       Uiso       1.00
       C59          C  0.5000000  0.2029100  0.8818800    0.00000       Uiso       1.00
       C60          C  0.5000000  0.1984300  0.9283900    0.00000       Uiso       1.00
       C61          C  0.5000000  0.1789300  0.9423200    0.00000       Uiso       1.00
       C62          C  0.5000000  0.1639600  0.9100800    0.00000       Uiso       1.00
       C63          C  0.5000000  0.2222100  0.5495900    0.00000       Uiso       1.00
       C64          C  0.5000000  0.0465700  0.9354300    0.00000       Uiso       1.00
        N8          N  0.5000000  0.0278800  0.9285000    0.00000       Uiso       1.00
       C65          C  0.5000000  0.0139700  0.9648900    0.00000       Uiso       1.00
       C66          C  0.5000000  0.0198400  0.0107000    0.00000       Uiso       1.00
       C67          C  0.5000000  0.0059400  0.0455000    0.00000       Uiso       1.00
       C68          C  0.5000000  0.2416400  0.5639900    0.00000       Uiso       1.00
       C69          C  0.5000000  0.2567700  0.5322400    0.00000       Uiso       1.00
       C70          C  0.5000000  0.2526200  0.4854700    0.00000       Uiso       1.00
       C71          C  0.5000000  0.2331700  0.4710100    0.00000       Uiso       1.00
       C72          C  0.5000000  0.2180000  0.5028400    0.00000       Uiso       1.00
       C73          C  0.5000000  0.1886400  0.5740300    0.00000       Uiso       1.00
        N9          N  0.5000000  0.2071500  0.5832300    0.00000       Uiso       1.00
       N10          N  0.5000000  0.2321300  0.9521900    0.00000       Uiso       1.00
       C74          C  0.5000000  0.2137900  0.9630200    0.00000       Uiso       1.00
       H25          H  0.5000000  0.1066500  0.6721801    0.00000       Uiso       1.00
       H26          H  0.5000000  0.0814400  0.7359900    0.00000       Uiso       1.00
       H27          H  0.5000000  0.0637200  0.7803200    0.00000       Uiso       1.00
       H28          H  0.5000000  0.0384600  0.8435500    0.00000       Uiso       1.00
       H29          H  0.5000000  0.0854800  0.9452201    0.00000       Uiso       1.00
       H30          H  0.5000000  0.1105700  0.8820500    0.00000       Uiso       1.00
       H31          H  0.5000000  0.1242200  0.6272900    0.00000       Uiso       1.00
       H32          H  0.5000000  0.1492800  0.5636300    0.00000       Uiso       1.00
       H33          H  0.5000000  0.1964400  0.6649400    0.00000       Uiso       1.00
       H34          H  0.5000000  0.1714200  0.7281300    0.00000       Uiso       1.00
       H35          H  0.5000000  0.1712900  0.7713900    0.00000       Uiso       1.00
       H36          H  0.5000000  0.1916000  0.8118100    0.00000       Uiso       1.00
       H37          H  0.5000000  0.2188000  0.8703800    0.00000       Uiso       1.00
       H38          H  0.5000000  0.1752000  0.9801100    0.00000       Uiso       1.00
       H39          H  0.5000000  0.1480700  0.9215800    0.00000       Uiso       1.00
       H40          H  0.5000000  0.0519500  0.9721100    0.00000       Uiso       1.00
       H41          H  0.5000000  0.0360300  0.0196600    0.00000       Uiso       1.00
       H42          H  0.5000000  0.0108200  0.0825700    0.00000       Uiso       1.00
       H43          H  0.5000000  0.2451000  0.6019200    0.00000       Uiso       1.00
       H44          H  0.5000000  0.2726000  0.5442100    0.00000       Uiso       1.00
       H45          H  0.5000000  0.2296200  0.4331300    0.00000       Uiso       1.00
       H46          H  0.5000000  0.2021800  0.4908600    0.00000       Uiso       1.00
       H47          H  0.5000000  0.1836200  0.5370700    0.00000       Uiso       1.00
       H48          H  0.5000000  0.2097400  0.0006300    0.00000       Uiso       1.00
       C75          C  0.0000000  0.8682101  0.2188000    0.00000       Uiso       1.00
       C76          C  0.0000000  0.8883801  0.2091900    0.00000       Uiso       1.00
       C77          C  0.0000000  0.9023200  0.2444700    0.00000       Uiso       1.00
       C78          C  0.0000000  0.8965601  0.2905600    0.00000       Uiso       1.00
       C79          C  0.0000000  0.8763900  0.2990300    0.00000       Uiso       1.00
       C80          C  0.0000000  0.8629200  0.2649300    0.00000       Uiso       1.00
       C81          C  0.0000000  0.9113601  0.3275800    0.00000       Uiso       1.00
       C82          C  0.0000000  0.9314000  0.3173900    0.00000       Uiso       1.00
       C83          C  0.0000000  0.9453200  0.3522400    0.00000       Uiso       1.00
       C84          C  0.0000000  0.9393600  0.3978600    0.00000       Uiso       1.00
       C85          C  0.0000000  0.9195001  0.4082200    0.00000       Uiso       1.00
       C86          C  0.0000000  0.9056500  0.3734300    0.00000       Uiso       1.00
       C87          C  0.0000000  0.8535901  0.1814600    0.00000       Uiso       1.00
       C88          C  0.0000000  0.8595400  0.1357000    0.00000       Uiso       1.00
       C89          C  0.0000000  0.8457201  0.1006200    0.00000       Uiso       1.00
       C90          C  0.0000000  0.8257900  0.1108300    0.00000       Uiso       1.00
       C91          C  0.0000000  0.8197801  0.1563000    0.00000       Uiso       1.00
       C92          C  0.0000000  0.8335401  0.1911300    0.00000       Uiso       1.00
       N11          N  0.0000000  0.8439400  0.2842400    0.00000       Uiso       1.00
       C93          C  0.0000000  0.8474100  0.3296800    0.00000       Uiso       1.00
       N12          N  0.0000000  0.8665600  0.3415000    0.00000       Uiso       1.00
       C94          C  0.0000000  0.8316301  0.3635500    0.00000       Uiso       1.00
       C95          C  0.0000000  0.8120700  0.3496300    0.00000       Uiso       1.00
       C96          C  0.0000000  0.7970901  0.3818800    0.00000       Uiso       1.00
       C97          C  0.0000000  0.8015701  0.4283900    0.00000       Uiso       1.00
       C98          C  0.0000000  0.8210700  0.4423200    0.00000       Uiso       1.00
       C99          C  0.0000000  0.8360401  0.4100800    0.00000       Uiso       1.00
      C100          C  0.0000000  0.7777900  0.0495900    0.00000       Uiso       1.00
      C101          C  0.0000000  0.9534301  0.4354300    0.00000       Uiso       1.00
       N13          N  0.0000000  0.9721201  0.4285000    0.00000       Uiso       1.00
      C102          C  0.0000000  0.9860300  0.4648900    0.00000       Uiso       1.00
      C103          C  0.0000000  0.9801600  0.5107000    0.00000       Uiso       1.00
      C104          C  0.0000000  0.9940600  0.5455000    0.00000       Uiso       1.00
      C105          C  0.0000000  0.7583600  0.0639900    0.00000       Uiso       1.00
      C106          C  0.0000000  0.7432300  0.0322400    0.00000       Uiso       1.00
      C107          C  0.0000000  0.7473800  0.9854700    0.00000       Uiso       1.00
      C108          C  0.0000000  0.7668300  0.9710100    0.00000       Uiso       1.00
      C109          C  0.0000000  0.7820001  0.0028400    0.00000       Uiso       1.00
      C110          C  0.0000000  0.8113601  0.0740300    0.00000       Uiso       1.00
       N14          N  0.0000000  0.7928500  0.0832300    0.00000       Uiso       1.00
       N15          N  0.0000000  0.7678700  0.4521900    0.00000       Uiso       1.00
      C111          C  0.0000000  0.7862101  0.4630200    0.00000       Uiso       1.00
       H49          H  0.0000000  0.8933500  0.1721800    0.00000       Uiso       1.00
       H50          H  0.0000000  0.9185600  0.2359900    0.00000       Uiso       1.00
       H51          H  0.0000000  0.9362801  0.2803200    0.00000       Uiso       1.00
       H52          H  0.0000000  0.9615400  0.3435500    0.00000       Uiso       1.00
       H53          H  0.0000000  0.9145200  0.4452200    0.00000       Uiso       1.00
       H54          H  0.0000000  0.8894300  0.3820500    0.00000       Uiso       1.00
       H55          H  0.0000000  0.8757800  0.1272900    0.00000       Uiso       1.00
       H56          H  0.0000000  0.8507200  0.0636300    0.00000       Uiso       1.00
       H57          H  0.0000000  0.8035601  0.1649400    0.00000       Uiso       1.00
       H58          H  0.0000000  0.8285801  0.2281300    0.00000       Uiso       1.00
       H59          H  0.0000000  0.8287101  0.2713900    0.00000       Uiso       1.00
       H60          H  0.0000000  0.8084000  0.3118100    0.00000       Uiso       1.00
       H61          H  0.0000000  0.7812001  0.3703800    0.00000       Uiso       1.00
       H62          H  0.0000000  0.8248001  0.4801100    0.00000       Uiso       1.00
       H63          H  0.0000000  0.8519301  0.4215800    0.00000       Uiso       1.00
       H64          H  0.0000000  0.9480501  0.4721100    0.00000       Uiso       1.00
       H65          H  0.0000000  0.9639701  0.5196600    0.00000       Uiso       1.00
       H66          H  0.0000000  0.9891800  0.5825700    0.00000       Uiso       1.00
       H67          H  0.0000000  0.7549000  0.1019200    0.00000       Uiso       1.00
       H68          H  0.0000000  0.7274001  0.0442100    0.00000       Uiso       1.00
       H69          H  0.0000000  0.7703800  0.9331300    0.00000       Uiso       1.00
       H70          H  0.0000000  0.7978200  0.9908600    0.00000       Uiso       1.00
       H71          H  0.0000000  0.8163800  0.0370700    0.00000       Uiso       1.00
       H72          H  0.0000000  0.7902601  0.5006300    0.00000       Uiso       1.00
      C112          C  0.5000000  0.3682100  0.2188000    0.00000       Uiso       1.00
      C113          C  0.5000000  0.3883800  0.2091900    0.00000       Uiso       1.00
      C114          C  0.5000000  0.4023200  0.2444700    0.00000       Uiso       1.00
      C115          C  0.5000000  0.3965600  0.2905600    0.00000       Uiso       1.00
      C116          C  0.5000000  0.3763900  0.2990300    0.00000       Uiso       1.00
      C117          C  0.5000000  0.3629200  0.2649300    0.00000       Uiso       1.00
      C118          C  0.5000000  0.4113600  0.3275800    0.00000       Uiso       1.00
      C119          C  0.5000000  0.4314000  0.3173900    0.00000       Uiso       1.00
      C120          C  0.5000000  0.4453200  0.3522400    0.00000       Uiso       1.00
      C121          C  0.5000000  0.4393600  0.3978600    0.00000       Uiso       1.00
      C122          C  0.5000000  0.4195000  0.4082200    0.00000       Uiso       1.00
      C123          C  0.5000000  0.4056500  0.3734300    0.00000       Uiso       1.00
      C124          C  0.5000000  0.3535900  0.1814600    0.00000       Uiso       1.00
      C125          C  0.5000000  0.3595400  0.1357000    0.00000       Uiso       1.00
      C126          C  0.5000000  0.3457200  0.1006200    0.00000       Uiso       1.00
      C127          C  0.5000000  0.3257900  0.1108300    0.00000       Uiso       1.00
      C128          C  0.5000000  0.3197800  0.1563000    0.00000       Uiso       1.00
      C129          C  0.5000000  0.3335400  0.1911300    0.00000       Uiso       1.00
       N16          N  0.5000000  0.3439400  0.2842400    0.00000       Uiso       1.00
      C130          C  0.5000000  0.3474100  0.3296800    0.00000       Uiso       1.00
       N17          N  0.5000000  0.3665600  0.3415000    0.00000       Uiso       1.00
      C131          C  0.5000000  0.3316300  0.3635500    0.00000       Uiso       1.00
      C132          C  0.5000000  0.3120700  0.3496300    0.00000       Uiso       1.00
      C133          C  0.5000000  0.2970900  0.3818800    0.00000       Uiso       1.00
      C134          C  0.5000000  0.3015700  0.4283900    0.00000       Uiso       1.00
      C135          C  0.5000000  0.3210700  0.4423200    0.00000       Uiso       1.00
      C136          C  0.5000000  0.3360400  0.4100800    0.00000       Uiso       1.00
      C137          C  0.5000000  0.2777900  0.0495900    0.00000       Uiso       1.00
      C138          C  0.5000000  0.4534300  0.4354300    0.00000       Uiso       1.00
       N18          N  0.5000000  0.4721200  0.4285000    0.00000       Uiso       1.00
      C139          C  0.5000000  0.4860300  0.4648900    0.00000       Uiso       1.00
      C140          C  0.5000000  0.4801600  0.5107000    0.00000       Uiso       1.00
      C141          C  0.5000000  0.4940600  0.5455000    0.00000       Uiso       1.00
      C142          C  0.5000000  0.2583600  0.0639900    0.00000       Uiso       1.00
      C143          C  0.5000000  0.2432300  0.0322400    0.00000       Uiso       1.00
      C144          C  0.5000000  0.2473800  0.9854700    0.00000       Uiso       1.00
      C145          C  0.5000000  0.2668300  0.9710100    0.00000       Uiso       1.00
      C146          C  0.5000000  0.2820000  0.0028400    0.00000       Uiso       1.00
      C147          C  0.5000000  0.3113600  0.0740300    0.00000       Uiso       1.00
       N19          N  0.5000000  0.2928500  0.0832300    0.00000       Uiso       1.00
       N20          N  0.5000000  0.2678700  0.4521900    0.00000       Uiso       1.00
      C148          C  0.5000000  0.2862100  0.4630200    0.00000       Uiso       1.00
       H73          H  0.5000000  0.3933500  0.1721800    0.00000       Uiso       1.00
       H74          H  0.5000000  0.4185600  0.2359900    0.00000       Uiso       1.00
       H75          H  0.5000000  0.4362800  0.2803200    0.00000       Uiso       1.00
       H76          H  0.5000000  0.4615400  0.3435500    0.00000       Uiso       1.00
       H77          H  0.5000000  0.4145200  0.4452200    0.00000       Uiso       1.00
       H78          H  0.5000000  0.3894300  0.3820500    0.00000       Uiso       1.00
       H79          H  0.5000000  0.3757800  0.1272900    0.00000       Uiso       1.00
       H80          H  0.5000000  0.3507200  0.0636300    0.00000       Uiso       1.00
       H81          H  0.5000000  0.3035600  0.1649400    0.00000       Uiso       1.00
       H82          H  0.5000000  0.3285800  0.2281300    0.00000       Uiso       1.00
       H83          H  0.5000000  0.3287100  0.2713900    0.00000       Uiso       1.00
       H84          H  0.5000000  0.3084000  0.3118100    0.00000       Uiso       1.00
       H85          H  0.5000000  0.2812000  0.3703800    0.00000       Uiso       1.00
       H86          H  0.5000000  0.3248000  0.4801100    0.00000       Uiso       1.00
       H87          H  0.5000000  0.3519300  0.4215800    0.00000       Uiso       1.00
       H88          H  0.5000000  0.4480500  0.4721100    0.00000       Uiso       1.00
       H89          H  0.5000000  0.4639700  0.5196600    0.00000       Uiso       1.00
       H90          H  0.5000000  0.4891800  0.5825700    0.00000       Uiso       1.00
       H91          H  0.5000000  0.2549000  0.1019200    0.00000       Uiso       1.00
       H92          H  0.5000000  0.2274000  0.0442100    0.00000       Uiso       1.00
       H93          H  0.5000000  0.2703800  0.9331300    0.00000       Uiso       1.00
       H94          H  0.5000000  0.2978200  0.9908600    0.00000       Uiso       1.00
       H95          H  0.5000000  0.3163800  0.0370700    0.00000       Uiso       1.00
       H96          H  0.5000000  0.2902600  0.5006300    0.00000       Uiso       1.00
      C149          C  0.0000000  0.1317900  0.7812000    0.00000       Uiso       1.00
      C150          C  0.0000000  0.1116200  0.7908100    0.00000       Uiso       1.00
      C151          C  0.0000000  0.0976800  0.7555300    0.00000       Uiso       1.00
      C152          C  0.0000000  0.1034400  0.7094400    0.00000       Uiso       1.00
      C153          C  0.0000000  0.1236100  0.7009701    0.00000       Uiso       1.00
      C154          C  0.0000000  0.1370800  0.7350700    0.00000       Uiso       1.00
      C155          C  0.0000000  0.0886400  0.6724200    0.00000       Uiso       1.00
      C156          C  0.0000000  0.0686000  0.6826100    0.00000       Uiso       1.00
      C157          C  0.0000000  0.0546800  0.6477600    0.00000       Uiso       1.00
      C158          C  0.0000000  0.0606400  0.6021400    0.00000       Uiso       1.00
      C159          C  0.0000000  0.0805000  0.5917800    0.00000       Uiso       1.00
      C160          C  0.0000000  0.0943500  0.6265700    0.00000       Uiso       1.00
      C161          C  0.0000000  0.1464100  0.8185400    0.00000       Uiso       1.00
      C162          C  0.0000000  0.1404600  0.8643000    0.00000       Uiso       1.00
      C163          C  0.0000000  0.1542800  0.8993800    0.00000       Uiso       1.00
      C164          C  0.0000000  0.1742100  0.8891700    0.00000       Uiso       1.00
      C165          C  0.0000000  0.1802200  0.8437000    0.00000       Uiso       1.00
      C166          C  0.0000000  0.1664600  0.8088700    0.00000       Uiso       1.00
       N21          N  0.0000000  0.1560600  0.7157601    0.00000       Uiso       1.00
      C167          C  0.0000000  0.1525900  0.6703200    0.00000       Uiso       1.00
       N22          N  0.0000000  0.1334400  0.6585000    0.00000       Uiso       1.00
      C168          C  0.0000000  0.1683700  0.6364500    0.00000       Uiso       1.00
      C169          C  0.0000000  0.1879300  0.6503700    0.00000       Uiso       1.00
      C170          C  0.0000000  0.2029100  0.6181200    0.00000       Uiso       1.00
      C171          C  0.0000000  0.1984300  0.5716100    0.00000       Uiso       1.00
      C172          C  0.0000000  0.1789300  0.5576800    0.00000       Uiso       1.00
      C173          C  0.0000000  0.1639600  0.5899200    0.00000       Uiso       1.00
      C174          C  0.0000000  0.2222100  0.9504100    0.00000       Uiso       1.00
      C175          C  0.0000000  0.0465700  0.5645700    0.00000       Uiso       1.00
       N23          N  0.0000000  0.0278800  0.5715000    0.00000       Uiso       1.00
      C176          C  0.0000000  0.0139700  0.5351100    0.00000       Uiso       1.00
      C177          C  0.0000000  0.0198400  0.4893000    0.00000       Uiso       1.00
      C178          C  0.0000000  0.0059400  0.4545000    0.00000       Uiso       1.00
      C179          C  0.0000000  0.2416400  0.9360100    0.00000       Uiso       1.00
      C180          C  0.0000000  0.2567700  0.9677600    0.00000       Uiso       1.00
      C181          C  0.0000000  0.2526200  0.0145300    0.00000       Uiso       1.00
      C182          C  0.0000000  0.2331700  0.0289900    0.00000       Uiso       1.00
      C183          C  0.0000000  0.2180000  0.9971600    0.00000       Uiso       1.00
      C184          C  0.0000000  0.1886400  0.9259700    0.00000       Uiso       1.00
       N24          N  0.0000000  0.2071500  0.9167700    0.00000       Uiso       1.00
       N25          N  0.0000000  0.2321300  0.5478100    0.00000       Uiso       1.00
      C185          C  0.0000000  0.2137900  0.5369800    0.00000       Uiso       1.00
       H97          H  0.0000000  0.1066500  0.8278200    0.00000       Uiso       1.00
       H98          H  0.0000000  0.0814400  0.7640100    0.00000       Uiso       1.00
       H99          H  0.0000000  0.0637200  0.7196800    0.00000       Uiso       1.00
      H100          H  0.0000000  0.0384600  0.6564500    0.00000       Uiso       1.00
      H101          H  0.0000000  0.0854800  0.5547800    0.00000       Uiso       1.00
      H102          H  0.0000000  0.1105700  0.6179500    0.00000       Uiso       1.00
      H103          H  0.0000000  0.1242200  0.8727100    0.00000       Uiso       1.00
      H104          H  0.0000000  0.1492800  0.9363700    0.00000       Uiso       1.00
      H105          H  0.0000000  0.1964400  0.8350600    0.00000       Uiso       1.00
      H106          H  0.0000000  0.1714200  0.7718700    0.00000       Uiso       1.00
      H107          H  0.0000000  0.1712900  0.7286100    0.00000       Uiso       1.00
      H108          H  0.0000000  0.1916000  0.6881900    0.00000       Uiso       1.00
      H109          H  0.0000000  0.2188000  0.6296200    0.00000       Uiso       1.00
      H110          H  0.0000000  0.1752000  0.5198900    0.00000       Uiso       1.00
      H111          H  0.0000000  0.1480700  0.5784200    0.00000       Uiso       1.00
      H112          H  0.0000000  0.0519500  0.5278900    0.00000       Uiso       1.00
      H113          H  0.0000000  0.0360300  0.4803400    0.00000       Uiso       1.00
      H114          H  0.0000000  0.0108200  0.4174300    0.00000       Uiso       1.00
      H115          H  0.0000000  0.2451000  0.8980800    0.00000       Uiso       1.00
      H116          H  0.0000000  0.2726000  0.9557900    0.00000       Uiso       1.00
      H117          H  0.0000000  0.2296200  0.0668700    0.00000       Uiso       1.00
      H118          H  0.0000000  0.2021800  0.0091400    0.00000       Uiso       1.00
      H119          H  0.0000000  0.1836200  0.9629300    0.00000       Uiso       1.00
      H120          H  0.0000000  0.2097400  0.4993700    0.00000       Uiso       1.00
      C186          C  0.5000000  0.6317900  0.7812000    0.00000       Uiso       1.00
      C187          C  0.5000000  0.6116201  0.7908100    0.00000       Uiso       1.00
      C188          C  0.5000000  0.5976800  0.7555300    0.00000       Uiso       1.00
      C189          C  0.5000000  0.6034400  0.7094400    0.00000       Uiso       1.00
      C190          C  0.5000000  0.6236100  0.7009701    0.00000       Uiso       1.00
      C191          C  0.5000000  0.6370800  0.7350700    0.00000       Uiso       1.00
      C192          C  0.5000000  0.5886400  0.6724200    0.00000       Uiso       1.00
      C193          C  0.5000000  0.5686001  0.6826100    0.00000       Uiso       1.00
      C194          C  0.5000000  0.5546800  0.6477600    0.00000       Uiso       1.00
      C195          C  0.5000000  0.5606400  0.6021400    0.00000       Uiso       1.00
      C196          C  0.5000000  0.5805000  0.5917800    0.00000       Uiso       1.00
      C197          C  0.5000000  0.5943500  0.6265700    0.00000       Uiso       1.00
      C198          C  0.5000000  0.6464100  0.8185400    0.00000       Uiso       1.00
      C199          C  0.5000000  0.6404600  0.8643000    0.00000       Uiso       1.00
      C200          C  0.5000000  0.6542800  0.8993800    0.00000       Uiso       1.00
      C201          C  0.5000000  0.6742100  0.8891700    0.00000       Uiso       1.00
      C202          C  0.5000000  0.6802200  0.8437000    0.00000       Uiso       1.00
      C203          C  0.5000000  0.6664600  0.8088700    0.00000       Uiso       1.00
       N26          N  0.5000000  0.6560600  0.7157601    0.00000       Uiso       1.00
      C204          C  0.5000000  0.6525900  0.6703200    0.00000       Uiso       1.00
       N27          N  0.5000000  0.6334400  0.6585000    0.00000       Uiso       1.00
      C205          C  0.5000000  0.6683700  0.6364500    0.00000       Uiso       1.00
      C206          C  0.5000000  0.6879300  0.6503700    0.00000       Uiso       1.00
      C207          C  0.5000000  0.7029101  0.6181200    0.00000       Uiso       1.00
      C208          C  0.5000000  0.6984300  0.5716100    0.00000       Uiso       1.00
      C209          C  0.5000000  0.6789300  0.5576800    0.00000       Uiso       1.00
      C210          C  0.5000000  0.6639600  0.5899200    0.00000       Uiso       1.00
      C211          C  0.5000000  0.7222100  0.9504100    0.00000       Uiso       1.00
      C212          C  0.5000000  0.5465701  0.5645700    0.00000       Uiso       1.00
       N28          N  0.5000000  0.5278800  0.5715000    0.00000       Uiso       1.00
      C213          C  0.5000000  0.5139700  0.5351100    0.00000       Uiso       1.00
      C214          C  0.5000000  0.5198401  0.4893000    0.00000       Uiso       1.00
      C215          C  0.5000000  0.5059400  0.4545000    0.00000       Uiso       1.00
      C216          C  0.5000000  0.7416400  0.9360100    0.00000       Uiso       1.00
      C217          C  0.5000000  0.7567701  0.9677600    0.00000       Uiso       1.00
      C218          C  0.5000000  0.7526200  0.0145300    0.00000       Uiso       1.00
      C219          C  0.5000000  0.7331700  0.0289900    0.00000       Uiso       1.00
      C220          C  0.5000000  0.7180001  0.9971600    0.00000       Uiso       1.00
      C221          C  0.5000000  0.6886400  0.9259700    0.00000       Uiso       1.00
       N29          N  0.5000000  0.7071500  0.9167700    0.00000       Uiso       1.00
       N30          N  0.5000000  0.7321300  0.5478100    0.00000       Uiso       1.00
      C222          C  0.5000000  0.7137900  0.5369800    0.00000       Uiso       1.00
      H121          H  0.5000000  0.6066500  0.8278200    0.00000       Uiso       1.00
      H122          H  0.5000000  0.5814400  0.7640100    0.00000       Uiso       1.00
      H123          H  0.5000000  0.5637200  0.7196800    0.00000       Uiso       1.00
      H124          H  0.5000000  0.5384600  0.6564500    0.00000       Uiso       1.00
      H125          H  0.5000000  0.5854800  0.5547800    0.00000       Uiso       1.00
      H126          H  0.5000000  0.6105701  0.6179500    0.00000       Uiso       1.00
      H127          H  0.5000000  0.6242200  0.8727100    0.00000       Uiso       1.00
      H128          H  0.5000000  0.6492801  0.9363700    0.00000       Uiso       1.00
      H129          H  0.5000000  0.6964400  0.8350600    0.00000       Uiso       1.00
      H130          H  0.5000000  0.6714200  0.7718700    0.00000       Uiso       1.00
      H131          H  0.5000000  0.6712900  0.7286100    0.00000       Uiso       1.00
      H132          H  0.5000000  0.6916000  0.6881900    0.00000       Uiso       1.00
      H133          H  0.5000000  0.7188000  0.6296200    0.00000       Uiso       1.00
      H134          H  0.5000000  0.6752000  0.5198900    0.00000       Uiso       1.00
      H135          H  0.5000000  0.6480700  0.5784200    0.00000       Uiso       1.00
      H136          H  0.5000000  0.5519500  0.5278900    0.00000       Uiso       1.00
      H137          H  0.5000000  0.5360300  0.4803400    0.00000       Uiso       1.00
      H138          H  0.5000000  0.5108200  0.4174300    0.00000       Uiso       1.00
      H139          H  0.5000000  0.7451000  0.8980800    0.00000       Uiso       1.00
      H140          H  0.5000000  0.7726001  0.9557900    0.00000       Uiso       1.00
      H141          H  0.5000000  0.7296200  0.0668700    0.00000       Uiso       1.00
      H142          H  0.5000000  0.7021800  0.0091400    0.00000       Uiso       1.00
      H143          H  0.5000000  0.6836200  0.9629300    0.00000       Uiso       1.00
      H144          H  0.5000000  0.7097400  0.4993700    0.00000       Uiso       1.00
      C223          C  0.0000000  0.3682100  0.2812000    0.00000       Uiso       1.00
      C224          C  0.0000000  0.3883800  0.2908100    0.00000       Uiso       1.00
      C225          C  0.0000000  0.4023200  0.2555300    0.00000       Uiso       1.00
      C226          C  0.0000000  0.3965600  0.2094400    0.00000       Uiso       1.00
      C227          C  0.0000000  0.3763900  0.2009700    0.00000       Uiso       1.00
      C228          C  0.0000000  0.3629200  0.2350700    0.00000       Uiso       1.00
      C229          C  0.0000000  0.4113600  0.1724200    0.00000       Uiso       1.00
      C230          C  0.0000000  0.4314000  0.1826100    0.00000       Uiso       1.00
      C231          C  0.0000000  0.4453200  0.1477600    0.00000       Uiso       1.00
      C232          C  0.0000000  0.4393600  0.1021400    0.00000       Uiso       1.00
      C233          C  0.0000000  0.4195000  0.0917800    0.00000       Uiso       1.00
      C234          C  0.0000000  0.4056500  0.1265700    0.00000       Uiso       1.00
      C235          C  0.0000000  0.3535900  0.3185400    0.00000       Uiso       1.00
      C236          C  0.0000000  0.3595400  0.3643000    0.00000       Uiso       1.00
      C237          C  0.0000000  0.3457200  0.3993800    0.00000       Uiso       1.00
      C238          C  0.0000000  0.3257900  0.3891700    0.00000       Uiso       1.00
      C239          C  0.0000000  0.3197800  0.3437000    0.00000       Uiso       1.00
      C240          C  0.0000000  0.3335400  0.3088700    0.00000       Uiso       1.00
       N31          N  0.0000000  0.3439400  0.2157600    0.00000       Uiso       1.00
      C241          C  0.0000000  0.3474100  0.1703200    0.00000       Uiso       1.00
       N32          N  0.0000000  0.3665600  0.1585000    0.00000       Uiso       1.00
      C242          C  0.0000000  0.3316300  0.1364500    0.00000       Uiso       1.00
      C243          C  0.0000000  0.3120700  0.1503700    0.00000       Uiso       1.00
      C244          C  0.0000000  0.2970900  0.1181200    0.00000       Uiso       1.00
      C245          C  0.0000000  0.3015700  0.0716100    0.00000       Uiso       1.00
      C246          C  0.0000000  0.3210700  0.0576800    0.00000       Uiso       1.00
      C247          C  0.0000000  0.3360400  0.0899200    0.00000       Uiso       1.00
      C248          C  0.0000000  0.2777900  0.4504100    0.00000       Uiso       1.00
      C249          C  0.0000000  0.4534300  0.0645700    0.00000       Uiso       1.00
       N33          N  0.0000000  0.4721200  0.0715000    0.00000       Uiso       1.00
      C250          C  0.0000000  0.4860300  0.0351100    0.00000       Uiso       1.00
      C251          C  0.0000000  0.4801600  0.9893000    0.00000       Uiso       1.00
      C252          C  0.0000000  0.4940600  0.9545000    0.00000       Uiso       1.00
      C253          C  0.0000000  0.2583600  0.4360100    0.00000       Uiso       1.00
      C254          C  0.0000000  0.2432300  0.4677600    0.00000       Uiso       1.00
      C255          C  0.0000000  0.2473800  0.5145300    0.00000       Uiso       1.00
      C256          C  0.0000000  0.2668300  0.5289900    0.00000       Uiso       1.00
      C257          C  0.0000000  0.2820000  0.4971600    0.00000       Uiso       1.00
      C258          C  0.0000000  0.3113600  0.4259700    0.00000       Uiso       1.00
       N34          N  0.0000000  0.2928500  0.4167700    0.00000       Uiso       1.00
       N35          N  0.0000000  0.2678700  0.0478100    0.00000       Uiso       1.00
      C259          C  0.0000000  0.2862100  0.0369800    0.00000       Uiso       1.00
      H145          H  0.0000000  0.3933500  0.3278200    0.00000       Uiso       1.00
      H146          H  0.0000000  0.4185600  0.2640100    0.00000       Uiso       1.00
      H147          H  0.0000000  0.4362800  0.2196800    0.00000       Uiso       1.00
      H148          H  0.0000000  0.4615400  0.1564500    0.00000       Uiso       1.00
      H149          H  0.0000000  0.4145200  0.0547800    0.00000       Uiso       1.00
      H150          H  0.0000000  0.3894300  0.1179500    0.00000       Uiso       1.00
      H151          H  0.0000000  0.3757800  0.3727100    0.00000       Uiso       1.00
      H152          H  0.0000000  0.3507200  0.4363700    0.00000       Uiso       1.00
      H153          H  0.0000000  0.3035600  0.3350600    0.00000       Uiso       1.00
      H154          H  0.0000000  0.3285800  0.2718700    0.00000       Uiso       1.00
      H155          H  0.0000000  0.3287100  0.2286100    0.00000       Uiso       1.00
      H156          H  0.0000000  0.3084000  0.1881900    0.00000       Uiso       1.00
      H157          H  0.0000000  0.2812000  0.1296200    0.00000       Uiso       1.00
      H158          H  0.0000000  0.3248000  0.0198900    0.00000       Uiso       1.00
      H159          H  0.0000000  0.3519300  0.0784200    0.00000       Uiso       1.00
      H160          H  0.0000000  0.4480500  0.0278900    0.00000       Uiso       1.00
      H161          H  0.0000000  0.4639700  0.9803401    0.00000       Uiso       1.00
      H162          H  0.0000000  0.4891800  0.9174300    0.00000       Uiso       1.00
      H163          H  0.0000000  0.2549000  0.3980800    0.00000       Uiso       1.00
      H164          H  0.0000000  0.2274000  0.4557900    0.00000       Uiso       1.00
      H165          H  0.0000000  0.2703800  0.5668700    0.00000       Uiso       1.00
      H166          H  0.0000000  0.2978200  0.5091400    0.00000       Uiso       1.00
      H167          H  0.0000000  0.3163800  0.4629300    0.00000       Uiso       1.00
      H168          H  0.0000000  0.2902600  0.9993700    0.00000       Uiso       1.00
      C260          C  0.5000000  0.8682101  0.2812000    0.00000       Uiso       1.00
      C261          C  0.5000000  0.8883801  0.2908100    0.00000       Uiso       1.00
      C262          C  0.5000000  0.9023200  0.2555300    0.00000       Uiso       1.00
      C263          C  0.5000000  0.8965601  0.2094400    0.00000       Uiso       1.00
      C264          C  0.5000000  0.8763900  0.2009700    0.00000       Uiso       1.00
      C265          C  0.5000000  0.8629200  0.2350700    0.00000       Uiso       1.00
      C266          C  0.5000000  0.9113601  0.1724200    0.00000       Uiso       1.00
      C267          C  0.5000000  0.9314000  0.1826100    0.00000       Uiso       1.00
      C268          C  0.5000000  0.9453200  0.1477600    0.00000       Uiso       1.00
      C269          C  0.5000000  0.9393600  0.1021400    0.00000       Uiso       1.00
      C270          C  0.5000000  0.9195001  0.0917800    0.00000       Uiso       1.00
      C271          C  0.5000000  0.9056500  0.1265700    0.00000       Uiso       1.00
      C272          C  0.5000000  0.8535901  0.3185400    0.00000       Uiso       1.00
      C273          C  0.5000000  0.8595400  0.3643000    0.00000       Uiso       1.00
      C274          C  0.5000000  0.8457201  0.3993800    0.00000       Uiso       1.00
      C275          C  0.5000000  0.8257900  0.3891700    0.00000       Uiso       1.00
      C276          C  0.5000000  0.8197801  0.3437000    0.00000       Uiso       1.00
      C277          C  0.5000000  0.8335401  0.3088700    0.00000       Uiso       1.00
       N36          N  0.5000000  0.8439400  0.2157600    0.00000       Uiso       1.00
      C278          C  0.5000000  0.8474100  0.1703200    0.00000       Uiso       1.00
       N37          N  0.5000000  0.8665600  0.1585000    0.00000       Uiso       1.00
      C279          C  0.5000000  0.8316301  0.1364500    0.00000       Uiso       1.00
      C280          C  0.5000000  0.8120700  0.1503700    0.00000       Uiso       1.00
      C281          C  0.5000000  0.7970901  0.1181200    0.00000       Uiso       1.00
      C282          C  0.5000000  0.8015701  0.0716100    0.00000       Uiso       1.00
      C283          C  0.5000000  0.8210700  0.0576800    0.00000       Uiso       1.00
      C284          C  0.5000000  0.8360401  0.0899200    0.00000       Uiso       1.00
      C285          C  0.5000000  0.7777900  0.4504100    0.00000       Uiso       1.00
      C286          C  0.5000000  0.9534301  0.0645700    0.00000       Uiso       1.00
       N38          N  0.5000000  0.9721201  0.0715000    0.00000       Uiso       1.00
      C287          C  0.5000000  0.9860300  0.0351100    0.00000       Uiso       1.00
      C288          C  0.5000000  0.9801600  0.9893000    0.00000       Uiso       1.00
      C289          C  0.5000000  0.9940600  0.9545000    0.00000       Uiso       1.00
      C290          C  0.5000000  0.7583600  0.4360100    0.00000       Uiso       1.00
      C291          C  0.5000000  0.7432300  0.4677600    0.00000       Uiso       1.00
      C292          C  0.5000000  0.7473800  0.5145300    0.00000       Uiso       1.00
      C293          C  0.5000000  0.7668300  0.5289900    0.00000       Uiso       1.00
      C294          C  0.5000000  0.7820001  0.4971600    0.00000       Uiso       1.00
      C295          C  0.5000000  0.8113601  0.4259700    0.00000       Uiso       1.00
       N39          N  0.5000000  0.7928500  0.4167700    0.00000       Uiso       1.00
       N40          N  0.5000000  0.7678700  0.0478100    0.00000       Uiso       1.00
      C296          C  0.5000000  0.7862101  0.0369800    0.00000       Uiso       1.00
      H169          H  0.5000000  0.8933500  0.3278200    0.00000       Uiso       1.00
      H170          H  0.5000000  0.9185600  0.2640100    0.00000       Uiso       1.00
      H171          H  0.5000000  0.9362801  0.2196800    0.00000       Uiso       1.00
      H172          H  0.5000000  0.9615400  0.1564500    0.00000       Uiso       1.00
      H173          H  0.5000000  0.9145200  0.0547800    0.00000       Uiso       1.00
      H174          H  0.5000000  0.8894300  0.1179500    0.00000       Uiso       1.00
      H175          H  0.5000000  0.8757800  0.3727100    0.00000       Uiso       1.00
      H176          H  0.5000000  0.8507200  0.4363700    0.00000       Uiso       1.00
      H177          H  0.5000000  0.8035601  0.3350600    0.00000       Uiso       1.00
      H178          H  0.5000000  0.8285801  0.2718700    0.00000       Uiso       1.00
      H179          H  0.5000000  0.8287101  0.2286100    0.00000       Uiso       1.00
      H180          H  0.5000000  0.8084000  0.1881900    0.00000       Uiso       1.00
      H181          H  0.5000000  0.7812001  0.1296200    0.00000       Uiso       1.00
      H182          H  0.5000000  0.8248001  0.0198900    0.00000       Uiso       1.00
      H183          H  0.5000000  0.8519301  0.0784200    0.00000       Uiso       1.00
      H184          H  0.5000000  0.9480501  0.0278900    0.00000       Uiso       1.00
      H185          H  0.5000000  0.9639701  0.9803401    0.00000       Uiso       1.00
      H186          H  0.5000000  0.9891800  0.9174300    0.00000       Uiso       1.00
      H187          H  0.5000000  0.7549000  0.3980800    0.00000       Uiso       1.00
      H188          H  0.5000000  0.7274001  0.4557900    0.00000       Uiso       1.00
      H189          H  0.5000000  0.7703800  0.5668700    0.00000       Uiso       1.00
      H190          H  0.5000000  0.7978200  0.5091400    0.00000       Uiso       1.00
      H191          H  0.5000000  0.8163800  0.4629300    0.00000       Uiso       1.00
      H192          H  0.5000000  0.7902601  0.9993700    0.00000       Uiso       1.00
