data_HO2C-H2P-COFs
_audit_creation_date              0000-00-00
_audit_creation_method            'LanYouShi'
_symmetry_space_group_name_H-M    'P1'
_cell_length_a                    25.5352993
_cell_length_b                    6.7739000
_cell_length_c                    25.4792004
_cell_angle_alpha                 90.0000000
_cell_angle_beta                  90.4366989
_cell_angle_gamma                 90.0000000
loop_
_atom_site_label
_atom_site_type_symbol
_atom_site_fract_x
_atom_site_fract_y
_atom_site_fract_z
_atom_site_U_iso_or_equiv
_atom_site_adp_type
_atom_site_occupancy
        C1          C  0.5563292  0.4999984  0.5033803    0.00000       Uiso       1.00
        C1          C  0.4436885  0.4999984  0.4966049    0.00000       Uiso       1.00
        C1          C  0.0060267  0.4999984  0.9441257    0.00000       Uiso       1.00
        C1          C  0.9939911  0.4999984  0.0558595    0.00000       Uiso       1.00
        O1          C  0.6113972  0.4999984  0.5097300    0.00000       Uiso       1.00
         H          H  0.6267762  0.4999984  0.5471024    0.00000       Uiso       1.00
        O1          C  0.3886205  0.4999984  0.4902552    0.00000       Uiso       1.00
         H          H  0.3732416  0.4999984  0.4528828    0.00000       Uiso       1.00
        O1          C  0.0128969  0.4999984  0.8892675    0.00000       Uiso       1.00
         H          H  0.0501976  0.4999984  0.8745635    0.00000       Uiso       1.00
        O1          C  0.9871209  0.4999984  0.1107177    0.00000       Uiso       1.00
         H          H  0.9498202  0.4999984  0.1254217    0.00000       Uiso       1.00
        C1          C  0.5248955  0.4999984  0.5489684    0.00000       Uiso       1.00
        C2          C  0.4751222  0.4999984  0.4510168    0.00000       Uiso       1.00
        C3          C  0.0502039  0.4999984  0.9779750    0.00000       Uiso       1.00
        C4          C  0.9498139  0.4999984  0.0220102    0.00000       Uiso       1.00
        C5          C  0.4699483  0.4999984  0.5459809    0.00000       Uiso       1.00
        C6          C  0.5300695  0.4999984  0.4540042    0.00000       Uiso       1.00
        C7          C  0.0442721  0.4999984  0.0328708    0.00000       Uiso       1.00
        C8          C  0.9557456  0.4999984  0.9671144    0.00000       Uiso       1.00
        H1          H  0.5415576  0.4999984  0.5856103    0.00000       Uiso       1.00
        H2          H  0.4584602  0.4999984  0.4143749    0.00000       Uiso       1.00
        H3          H  0.0873051  0.4999984  0.9630002    0.00000       Uiso       1.00
        H4          H  0.9127126  0.4999984  0.0369850    0.00000       Uiso       1.00
        C9          C  0.0401459  0.4999984  0.6151623    0.00000       Uiso       1.00
       C10          C  0.9598719  0.4999984  0.3848229    0.00000       Uiso       1.00
       C11          C  0.1069205  0.4999984  0.5584969    0.00000       Uiso       1.00
       C12          C  0.8930973  0.4999984  0.4414883    0.00000       Uiso       1.00
       C13          C  0.0867766  0.4999984  0.6440973    0.00000       Uiso       1.00
       C14          C  0.9132411  0.4999984  0.3558879    0.00000       Uiso       1.00
       C15          C  0.1278089  0.4999984  0.6092773    0.00000       Uiso       1.00
       C16          C  0.8722089  0.4999984  0.3907079    0.00000       Uiso       1.00
        H5          H  0.0906160  0.4999984  0.6840393    0.00000       Uiso       1.00
        H6          H  0.9094017  0.4999984  0.3159458    0.00000       Uiso       1.00
        H7          H  0.1665577  0.4999984  0.6195934    0.00000       Uiso       1.00
        H8          H  0.8334601  0.4999984  0.3803917    0.00000       Uiso       1.00
        N1          N  0.9373477  0.4999984  0.5531681    0.00000       Uiso       1.00
        N2          N  0.0626701  0.4999984  0.4468171    0.00000       Uiso       1.00
       C17          C  0.9426320  0.4999984  0.6061792    0.00000       Uiso       1.00
       C18          C  0.0573858  0.4999984  0.3938060    0.00000       Uiso       1.00
       C19          C  0.1140475  0.4999984  0.4607305    0.00000       Uiso       1.00
       C20          C  0.8859703  0.4999984  0.5392547    0.00000       Uiso       1.00
       C21          C  0.8922076  0.4999984  0.6269385    0.00000       Uiso       1.00
       C22          C  0.1078101  0.4999984  0.3730466    0.00000       Uiso       1.00
       C23          C  0.1427782  0.4999984  0.4143479    0.00000       Uiso       1.00
       C24          C  0.8572395  0.4999984  0.5856372    0.00000       Uiso       1.00
        H9          H  0.8822282  0.4999984  0.6657127    0.00000       Uiso       1.00
       H10          H  0.1177896  0.4999984  0.3342725    0.00000       Uiso       1.00
       H11          H  0.1826253  0.4999984  0.4108503    0.00000       Uiso       1.00
       H12          H  0.8173925  0.4999984  0.5891348    0.00000       Uiso       1.00
       C25          C  0.9892389  0.4999984  0.6365796    0.00000       Uiso       1.00
       C26          C  0.0107789  0.4999984  0.3634056    0.00000       Uiso       1.00
       C27          C  0.1363642  0.4999984  0.5117337    0.00000       Uiso       1.00
       C28          C  0.8636535  0.4999984  0.4882515    0.00000       Uiso       1.00
       C29          C  0.9848260  0.4999984  0.6918362    0.00000       Uiso       1.00
       C30          C  0.0151918  0.4999984  0.3081489    0.00000       Uiso       1.00
       C31          C  0.1915429  0.4999984  0.5164478    0.00000       Uiso       1.00
       C32          C  0.8084749  0.4999984  0.4835374    0.00000       Uiso       1.00
       C33          C  0.9825606  0.6800475  0.7197390    0.00000       Uiso       1.00
       C34          C  0.0174571  0.6800475  0.2802462    0.00000       Uiso       1.00
       C35          C  0.0174571  0.3199492  0.2802462    0.00000       Uiso       1.00
       C36          C  0.9825606  0.3199492  0.7197390    0.00000       Uiso       1.00
       C37          C  0.2194014  0.3199273  0.5189067    0.00000       Uiso       1.00
       C38          C  0.7806163  0.3199273  0.4810785    0.00000       Uiso       1.00
       C39          C  0.7806163  0.6800695  0.4810785    0.00000       Uiso       1.00
       C40          C  0.2194014  0.6800695  0.5189067    0.00000       Uiso       1.00
       H13          H  0.9840438  0.8117313  0.7001143    0.00000       Uiso       1.00
       H14          H  0.0159740  0.8117313  0.2998708    0.00000       Uiso       1.00
       H15          H  0.0159740  0.1882655  0.2998708    0.00000       Uiso       1.00
       H16          H  0.9840438  0.1882655  0.7001143    0.00000       Uiso       1.00
       H17          H  0.1998185  0.1882296  0.5172774    0.00000       Uiso       1.00
       H18          H  0.8001993  0.1882296  0.4827078    0.00000       Uiso       1.00
       H19          H  0.8001993  0.8117671  0.4827078    0.00000       Uiso       1.00
       H20          H  0.1998185  0.8117671  0.5172774    0.00000       Uiso       1.00
       C41          C  0.9781830  0.6796445  0.7748120    0.00000       Uiso       1.00
       C42          C  0.0218348  0.6796445  0.2251732    0.00000       Uiso       1.00
       C43          C  0.0218348  0.3203522  0.2251732    0.00000       Uiso       1.00
       C44          C  0.9781830  0.3203522  0.7748120    0.00000       Uiso       1.00
       C45          C  0.2743912  0.3203622  0.5237226    0.00000       Uiso       1.00
       C46          C  0.7256266  0.3203622  0.4762626    0.00000       Uiso       1.00
       C47          C  0.7256266  0.6796346  0.4762626    0.00000       Uiso       1.00
       C48          C  0.2743912  0.6796346  0.5237226    0.00000       Uiso       1.00
       H21          H  0.9764144  0.8099402  0.7948987    0.00000       Uiso       1.00
       H22          H  0.0236034  0.8099402  0.2050864    0.00000       Uiso       1.00
       H23          H  0.0236034  0.1900566  0.2050864    0.00000       Uiso       1.00
       H24          H  0.9764144  0.1900566  0.7948987    0.00000       Uiso       1.00
       H25          H  0.2945210  0.1902259  0.5256695    0.00000       Uiso       1.00
       H26          H  0.7054967  0.1902259  0.4743158    0.00000       Uiso       1.00
       H27          H  0.7054967  0.8097709  0.4743158    0.00000       Uiso       1.00
       H28          H  0.2945210  0.8097709  0.5256695    0.00000       Uiso       1.00
       C49          C  0.9761941  0.4999984  0.8025114    0.00000       Uiso       1.00
       C50          C  0.0238237  0.4999984  0.1974738    0.00000       Uiso       1.00
       C51          C  0.3020161  0.4999984  0.5259464    0.00000       Uiso       1.00
       C52          C  0.6980017  0.4999984  0.4740388    0.00000       Uiso       1.00
        O1          O  0.4450772  0.4999984  0.5925714    0.00000       Uiso       1.00
        O2          O  0.5549405  0.4999984  0.4074138    0.00000       Uiso       1.00
       H29          H  0.0772017  0.4999984  0.0560453    0.00000       Uiso       1.00
       H30          H  0.9228161  0.4999984  0.9439399    0.00000       Uiso       1.00
       C53          C  0.5211193  0.4999984  0.3585409    0.00000       Uiso       1.00
       C54          C  0.5509619  0.4999984  0.3082337    0.00000       Uiso       1.00
       C55          C  0.5164216  0.4999984  0.2584375    0.00000       Uiso       1.00
       C56          C  0.5456290  0.5098721  0.2058245    0.00000       Uiso       1.00
        O3          O  0.4620306  0.5019545  0.3602993    0.00000       Uiso       1.00
       H31          H  0.5845034  0.3902347  0.3031355    0.00000       Uiso       1.00
       H32          H  0.5675927  0.6540427  0.3148538    0.00000       Uiso       1.00
       H33          H  0.4828199  0.6093808  0.2634819    0.00000       Uiso       1.00
       H34          H  0.4998942  0.3457001  0.2517967    0.00000       Uiso       1.00
        O4          O  0.6046360  0.5241302  0.2053011    0.00000       Uiso       1.00
        O5          O  0.5151838  0.5106174  0.1547832    0.00000       Uiso       1.00
       H35          H  0.6183516  0.5296567  0.1640530    0.00000       Uiso       1.00
       C57          C  0.4788984  0.4999984  0.6414443    0.00000       Uiso       1.00
       C58          C  0.4490559  0.4999984  0.6917515    0.00000       Uiso       1.00
       C59          C  0.4835961  0.4999984  0.7415478    0.00000       Uiso       1.00
       C60          C  0.4543888  0.5098721  0.7941607    0.00000       Uiso       1.00
        O6          O  0.5379872  0.5019545  0.6396859    0.00000       Uiso       1.00
       H36          H  0.4155143  0.3902347  0.6968496    0.00000       Uiso       1.00
       H37          H  0.4324251  0.6540427  0.6851313    0.00000       Uiso       1.00
       H38          H  0.5171978  0.6093808  0.7365032    0.00000       Uiso       1.00
       H39          H  0.5001236  0.3457001  0.7481885    0.00000       Uiso       1.00
        O7          O  0.3953818  0.5241302  0.7946841    0.00000       Uiso       1.00
        O8          O  0.4848340  0.5106174  0.8452020    0.00000       Uiso       1.00
       H40          H  0.3816661  0.5296567  0.8359322    0.00000       Uiso       1.00
        B1          N  0.3546412  0.4999984  0.5307329    0.00000       Uiso       1.00
        B1          N  0.6453766  0.4999984  0.4692523    0.00000       Uiso       1.00
        B1          N  0.0280512  0.4999984  0.1447529    0.00000       Uiso       1.00
        B1          N  0.9719666  0.4999984  0.8552322    0.00000       Uiso       1.00
        N1          N  0.0543826  0.4999984  0.5642207    0.00000       Uiso       1.00
        N1          N  0.9456351  0.4999984  0.4357645    0.00000       Uiso       1.00
        H5          H  0.0297040  0.4999984  0.5350837    0.00000       Uiso       1.00
        H5          H  0.9703137  0.4999984  0.4649015    0.00000       Uiso       1.00
