data_HP-COF-2
_audit_creation_date              0000-00-00
_audit_creation_method            'LanYouShi'
_symmetry_space_group_name_H-M    'P1'
_cell_length_a                    39.8899994
_cell_length_b                    39.8899994
_cell_length_c                    3.4700000
_cell_angle_alpha                 90.0000000
_cell_angle_beta                  90.0000000
_cell_angle_gamma                 120.0000000
loop_
_atom_site_label
_atom_site_type_symbol
_atom_site_fract_x
_atom_site_fract_y
_atom_site_fract_z
_atom_site_U_iso_or_equiv
_atom_site_adp_type
_atom_site_occupancy
        H1          H  0.7260000  0.8492000  0.0000000    0.00000       Uiso       1.00
        C1          C  0.7556400  0.8550600  0.0000000    0.00000       Uiso       1.00
        N1          N  0.7838300  0.8905300  0.0000000    0.00000       Uiso       1.00
        N2          N  0.7764400  0.9213300  0.0000000    0.00000       Uiso       1.00
        H2          H  0.8342800  0.9626200  0.0000000    0.00000       Uiso       1.00
        C2          C  0.8046400  0.9567900  0.0000000    0.00000       Uiso       1.00
        C3          C  0.7971901  0.9894900  0.0000000    0.00000       Uiso       1.00
        C4          C  0.7592900  0.9833300  0.0000000    0.00000       Uiso       1.00
        H3          H  0.7346800  0.9541801  0.0000000    0.00000       Uiso       1.00
        C5          C  0.6426500  0.9961300  0.0000000    0.00000       Uiso       1.00
        H4          H  0.6159400  0.9338199  0.0000000    0.00000       Uiso       1.00
        C6          C  0.6112200  0.9583000  0.0000000    0.00000       Uiso       1.00
        C7          C  0.5734000  0.9518500  0.0000000    0.00000       Uiso       1.00
        H5          H  0.5494100  0.9223800  0.0000000    0.00000       Uiso       1.00
        C8          C  0.5666300  0.9831500  0.0000000    0.00000       Uiso       1.00
        C9          C  0.5264400  0.9755800  0.0000000    0.00000       Uiso       1.00
        H6          H  0.5027200  0.9459300  0.0000000    0.00000       Uiso       1.00
        N3          N  0.4808900  0.9962600  0.0000000    0.00000       Uiso       1.00
        H7          H  0.4059500  0.9541700  0.0000000    0.00000       Uiso       1.00
       C10          C  0.4016300  0.9788800  0.0000000    0.00000       Uiso       1.00
       C11          C  0.3638300  0.9724901  0.0000000    0.00000       Uiso       1.00
        H8          H  0.3396800  0.9431000  0.0000000    0.00000       Uiso       1.00
       C12          C  0.3184700  0.9972600  0.0000000    0.00000       Uiso       1.00
       C13          C  0.2858900  0.9917400  0.0000000    0.00000       Uiso       1.00
       C14          C  0.2470300  0.9852000  0.0000000    0.00000       Uiso       1.00
        H9          H  0.2207400  0.9231501  0.0000000    0.00000       Uiso       1.00
       C15          C  0.2156000  0.9473900  0.0000000    0.00000       Uiso       1.00
       C16          C  0.1776000  0.9407500  0.0000000    0.00000       Uiso       1.00
       C17          C  0.1714200  0.9725000  0.0000000    0.00000       Uiso       1.00
       H10          H  0.1422000  0.9677401  0.0000000    0.00000       Uiso       1.00
       H11          H  0.1508000  0.8768000  0.0000000    0.00000       Uiso       1.00
       C18          C  0.1449400  0.9005800  0.0000000    0.00000       Uiso       1.00
        N4          N  0.1094700  0.8933001  0.0000000    0.00000       Uiso       1.00
        N5          N  0.0786700  0.8551100  0.0000000    0.00000       Uiso       1.00
       H12          H  0.0373800  0.8716601  0.0000000    0.00000       Uiso       1.00
       C19          C  0.0432100  0.8478500  0.0000000    0.00000       Uiso       1.00
       C20          C  0.0105100  0.8077001  0.0000000    0.00000       Uiso       1.00
       C21          C  0.0166700  0.7759600  0.0000000    0.00000       Uiso       1.00
       H13          H  0.0458200  0.7805001  0.0000000    0.00000       Uiso       1.00
       C22          C  0.0038700  0.6465200  0.0000000    0.00000       Uiso       1.00
       H14          H  0.0661800  0.6821200  0.0000000    0.00000       Uiso       1.00
       C23          C  0.0417000  0.6529201  0.0000000    0.00000       Uiso       1.00
       C24          C  0.0481500  0.6215500  0.0000000    0.00000       Uiso       1.00
       H15          H  0.0776200  0.6270300  0.0000000    0.00000       Uiso       1.00
       C25          C  0.0168500  0.5834800  0.0000000    0.00000       Uiso       1.00
       C26          C  0.0244200  0.5508600  0.0000000    0.00000       Uiso       1.00
       H16          H  0.0540700  0.5567900  0.0000000    0.00000       Uiso       1.00
        N6          N  0.0037400  0.4846300  0.0000000    0.00000       Uiso       1.00
       H17          H  0.0458300  0.4517800  0.0000000    0.00000       Uiso       1.00
       C27          C  0.0211200  0.4227501  0.0000000    0.00000       Uiso       1.00
       C28          C  0.0275100  0.3913400  0.0000000    0.00000       Uiso       1.00
       H18          H  0.0569000  0.3965800  0.0000000    0.00000       Uiso       1.00
       C29          C  0.0027400  0.3212100  0.0000000    0.00000       Uiso       1.00
       C30          C  0.0082600  0.2941500  0.0000000    0.00000       Uiso       1.00
       C31          C  0.0148000  0.2618300  0.0000000    0.00000       Uiso       1.00
       H19          H  0.0768500  0.2975900  0.0000000    0.00000       Uiso       1.00
       C32          C  0.0526100  0.2682100  0.0000000    0.00000       Uiso       1.00
       C33          C  0.0592500  0.2368500  0.0000000    0.00000       Uiso       1.00
       C34          C  0.0275000  0.1989200  0.0000000    0.00000       Uiso       1.00
       H20          H  0.0322600  0.1744600  0.0000000    0.00000       Uiso       1.00
       H21          H  0.1232000  0.2740000  0.0000000    0.00000       Uiso       1.00
       C35          C  0.0994200  0.2443600  0.0000000    0.00000       Uiso       1.00
        N7          N  0.1067000  0.2161700  0.0000000    0.00000       Uiso       1.00
        N8          N  0.1448900  0.2235600  0.0000000    0.00000       Uiso       1.00
       H22          H  0.1283400  0.1657200  0.0000000    0.00000       Uiso       1.00
       C36          C  0.1521500  0.1953600  0.0000000    0.00000       Uiso       1.00
       C37          C  0.1923000  0.2028100  0.0000000    0.00000       Uiso       1.00
       C38          C  0.2240400  0.2407100  0.0000000    0.00000       Uiso       1.00
       H23          H  0.2195000  0.2653200  0.0000000    0.00000       Uiso       1.00
       C39          C  0.3534800  0.3573500  0.0000000    0.00000       Uiso       1.00
       H24          H  0.3178800  0.3840600  0.0000000    0.00000       Uiso       1.00
       C40          C  0.3470800  0.3887800  0.0000000    0.00000       Uiso       1.00
       C41          C  0.3784500  0.4266000  0.0000000    0.00000       Uiso       1.00
       H25          H  0.3729700  0.4505900  0.0000000    0.00000       Uiso       1.00
       C42          C  0.4165200  0.4333700  0.0000000    0.00000       Uiso       1.00
       C43          C  0.4491400  0.4735600  0.0000000    0.00000       Uiso       1.00
       H26          H  0.4432100  0.4972800  0.0000000    0.00000       Uiso       1.00
        N9          N  0.5153700  0.5191100  0.0000000    0.00000       Uiso       1.00
       H27          H  0.5482200  0.5940500  0.0000000    0.00000       Uiso       1.00
       C44          C  0.5772500  0.5983700  0.0000000    0.00000       Uiso       1.00
       C45          C  0.6086600  0.6361700  0.0000000    0.00000       Uiso       1.00
       H28          H  0.6034200  0.6603200  0.0000000    0.00000       Uiso       1.00
       C46          C  0.6787900  0.6815300  0.0000000    0.00000       Uiso       1.00
       C47          C  0.7058500  0.7141100  0.0000000    0.00000       Uiso       1.00
       C48          C  0.7381700  0.7529700  0.0000000    0.00000       Uiso       1.00
       H29          H  0.7024100  0.7792600  0.0000000    0.00000       Uiso       1.00
       C49          C  0.7317900  0.7844000  0.0000000    0.00000       Uiso       1.00
       C50          C  0.7631500  0.8224000  0.0000000    0.00000       Uiso       1.00
       C51          C  0.8010800  0.8285800  0.0000000    0.00000       Uiso       1.00
       H30          H  0.8255400  0.8578000  0.0000000    0.00000       Uiso       1.00
       H31          H  0.2740000  0.1508000  0.0000000    0.00000       Uiso       1.00
       C52          C  0.2443600  0.1449400  0.0000000    0.00000       Uiso       1.00
       N10          N  0.2161700  0.1094700  0.0000000    0.00000       Uiso       1.00
       N11          N  0.2235600  0.0786700  0.0000000    0.00000       Uiso       1.00
       H32          H  0.1657200  0.0373800  0.0000000    0.00000       Uiso       1.00
       C53          C  0.1953600  0.0432100  0.0000000    0.00000       Uiso       1.00
       C54          C  0.2028100  0.0105100  0.0000000    0.00000       Uiso       1.00
       C55          C  0.2407100  0.0166700  0.0000000    0.00000       Uiso       1.00
       H33          H  0.2653200  0.0458200  0.0000000    0.00000       Uiso       1.00
       C56          C  0.3573500  0.0038700  0.0000000    0.00000       Uiso       1.00
       H34          H  0.3840600  0.0661800  0.0000000    0.00000       Uiso       1.00
       C57          C  0.3887800  0.0417000  0.0000000    0.00000       Uiso       1.00
       C58          C  0.4266000  0.0481500  0.0000000    0.00000       Uiso       1.00
       H35          H  0.4505900  0.0776200  0.0000000    0.00000       Uiso       1.00
       C59          C  0.4333700  0.0168500  0.0000000    0.00000       Uiso       1.00
       C60          C  0.4735600  0.0244200  0.0000000    0.00000       Uiso       1.00
       H36          H  0.4972800  0.0540700  0.0000000    0.00000       Uiso       1.00
       N12          N  0.5191100  0.0037400  0.0000000    0.00000       Uiso       1.00
       H37          H  0.5940500  0.0458300  0.0000000    0.00000       Uiso       1.00
       C61          C  0.5983700  0.0211200  0.0000000    0.00000       Uiso       1.00
       C62          C  0.6361700  0.0275100  0.0000000    0.00000       Uiso       1.00
       H38          H  0.6603200  0.0569000  0.0000000    0.00000       Uiso       1.00
       C63          C  0.6815300  0.0027400  0.0000000    0.00000       Uiso       1.00
       C64          C  0.7141100  0.0082600  0.0000000    0.00000       Uiso       1.00
       C65          C  0.7529700  0.0148000  0.0000000    0.00000       Uiso       1.00
       H39          H  0.7792600  0.0768500  0.0000000    0.00000       Uiso       1.00
       C66          C  0.7844000  0.0526100  0.0000000    0.00000       Uiso       1.00
       C67          C  0.8224000  0.0592500  0.0000000    0.00000       Uiso       1.00
       C68          C  0.8285800  0.0275000  0.0000000    0.00000       Uiso       1.00
       H40          H  0.8578000  0.0322600  0.0000000    0.00000       Uiso       1.00
       H41          H  0.8492000  0.1232000  0.0000000    0.00000       Uiso       1.00
       C69          C  0.8550600  0.0994200  0.0000000    0.00000       Uiso       1.00
       N13          N  0.8905300  0.1067000  0.0000000    0.00000       Uiso       1.00
       N14          N  0.9213300  0.1448900  0.0000000    0.00000       Uiso       1.00
       H42          H  0.9626201  0.1283400  0.0000000    0.00000       Uiso       1.00
       C70          C  0.9567900  0.1521500  0.0000000    0.00000       Uiso       1.00
       C71          C  0.9894900  0.1923000  0.0000000    0.00000       Uiso       1.00
       C72          C  0.9833301  0.2240400  0.0000000    0.00000       Uiso       1.00
       H43          H  0.9541800  0.2195000  0.0000000    0.00000       Uiso       1.00
       C73          C  0.9961300  0.3534800  0.0000000    0.00000       Uiso       1.00
       H44          H  0.9338201  0.3178800  0.0000000    0.00000       Uiso       1.00
       C74          C  0.9583001  0.3470800  0.0000000    0.00000       Uiso       1.00
       C75          C  0.9518500  0.3784500  0.0000000    0.00000       Uiso       1.00
       H45          H  0.9223800  0.3729700  0.0000000    0.00000       Uiso       1.00
       C76          C  0.9831500  0.4165200  0.0000000    0.00000       Uiso       1.00
       C77          C  0.9755800  0.4491400  0.0000000    0.00000       Uiso       1.00
       H46          H  0.9459300  0.4432100  0.0000000    0.00000       Uiso       1.00
       N15          N  0.9962600  0.5153700  0.0000000    0.00000       Uiso       1.00
       H47          H  0.9541700  0.5482200  0.0000000    0.00000       Uiso       1.00
       C78          C  0.9788800  0.5772500  0.0000000    0.00000       Uiso       1.00
       C79          C  0.9724900  0.6086600  0.0000000    0.00000       Uiso       1.00
       H48          H  0.9431000  0.6034200  0.0000000    0.00000       Uiso       1.00
       C80          C  0.9972600  0.6787900  0.0000000    0.00000       Uiso       1.00
       C81          C  0.9917400  0.7058500  0.0000000    0.00000       Uiso       1.00
       C82          C  0.9852000  0.7381700  0.0000000    0.00000       Uiso       1.00
       H49          H  0.9231500  0.7024100  0.0000000    0.00000       Uiso       1.00
       C83          C  0.9473900  0.7317900  0.0000000    0.00000       Uiso       1.00
       C84          C  0.9407500  0.7631500  0.0000000    0.00000       Uiso       1.00
       C85          C  0.9725001  0.8010800  0.0000000    0.00000       Uiso       1.00
       H50          H  0.9677400  0.8255400  0.0000000    0.00000       Uiso       1.00
       H51          H  0.8768000  0.7260000  0.0000000    0.00000       Uiso       1.00
       C86          C  0.9005800  0.7556400  0.0000000    0.00000       Uiso       1.00
       N16          N  0.8933000  0.7838300  0.0000000    0.00000       Uiso       1.00
       N17          N  0.8551100  0.7764401  0.0000000    0.00000       Uiso       1.00
       H52          H  0.8716600  0.8342800  0.0000000    0.00000       Uiso       1.00
       C87          C  0.8478500  0.8046400  0.0000000    0.00000       Uiso       1.00
       C88          C  0.8077001  0.7971900  0.0000000    0.00000       Uiso       1.00
       C89          C  0.7759600  0.7592900  0.0000000    0.00000       Uiso       1.00
       H53          H  0.7805000  0.7346800  0.0000000    0.00000       Uiso       1.00
       C90          C  0.6465200  0.6426500  0.0000000    0.00000       Uiso       1.00
       H54          H  0.6821200  0.6159400  0.0000000    0.00000       Uiso       1.00
       C91          C  0.6529200  0.6112200  0.0000000    0.00000       Uiso       1.00
       C92          C  0.6215500  0.5734001  0.0000000    0.00000       Uiso       1.00
       H55          H  0.6270300  0.5494100  0.0000000    0.00000       Uiso       1.00
       C93          C  0.5834800  0.5666301  0.0000000    0.00000       Uiso       1.00
       C94          C  0.5508600  0.5264400  0.0000000    0.00000       Uiso       1.00
       H56          H  0.5567900  0.5027200  0.0000000    0.00000       Uiso       1.00
       N18          N  0.4846300  0.4808900  0.0000000    0.00000       Uiso       1.00
       H57          H  0.4517800  0.4059500  0.0000000    0.00000       Uiso       1.00
       C95          C  0.4227501  0.4016300  0.0000000    0.00000       Uiso       1.00
       C96          C  0.3913400  0.3638300  0.0000000    0.00000       Uiso       1.00
       H58          H  0.3965800  0.3396800  0.0000000    0.00000       Uiso       1.00
       C97          C  0.3212100  0.3184700  0.0000000    0.00000       Uiso       1.00
       C98          C  0.2941500  0.2858900  0.0000000    0.00000       Uiso       1.00
       C99          C  0.2618300  0.2470300  0.0000000    0.00000       Uiso       1.00
       H59          H  0.2975900  0.2207400  0.0000000    0.00000       Uiso       1.00
      C100          C  0.2682100  0.2156000  0.0000000    0.00000       Uiso       1.00
      C101          C  0.2368500  0.1776000  0.0000000    0.00000       Uiso       1.00
      C102          C  0.1989200  0.1714200  0.0000000    0.00000       Uiso       1.00
       H60          H  0.1744600  0.1422000  0.0000000    0.00000       Uiso       1.00
