data_HPB-COF
_audit_creation_date              0000-00-00
_audit_creation_method            'LanYouShi'
_symmetry_space_group_name_H-M    'P1'
_cell_length_a                    21.4990997
_cell_length_b                    21.4990997
_cell_length_c                    5.6327000
_cell_angle_alpha                 90.0000000
_cell_angle_beta                  90.0000000
_cell_angle_gamma                 120.0000000
loop_
_atom_site_label
_atom_site_type_symbol
_atom_site_fract_x
_atom_site_fract_y
_atom_site_fract_z
_atom_site_U_iso_or_equiv
_atom_site_adp_type
_atom_site_occupancy
        C1          C  0.0651663  0.0678850  0.6710608    0.00000       Uiso       1.00
        C2          C  0.9321145  0.9972809  0.6710608    0.00000       Uiso       1.00
        C3          C  0.0027187  0.9348332  0.6710608    0.00000       Uiso       1.00
        C4          C  0.9348332  0.9321145  0.6710608    0.00000       Uiso       1.00
        C5          C  0.0678850  0.0027186  0.6710608    0.00000       Uiso       1.00
        C6          C  0.9972808  0.0651663  0.6710608    0.00000       Uiso       1.00
        C7          C  0.0373127  0.8522005  0.4855237    0.00000       Uiso       1.00
        C8          C  0.1477990  0.1851117  0.4855237    0.00000       Uiso       1.00
        C9          C  0.8148878  0.9626868  0.4855237    0.00000       Uiso       1.00
       C10          C  0.9626868  0.1477990  0.4855237    0.00000       Uiso       1.00
       C11          C  0.8522005  0.8148878  0.4855237    0.00000       Uiso       1.00
       C12          C  0.1851117  0.0373126  0.4855237    0.00000       Uiso       1.00
       C13          C  0.0411024  0.7887002  0.4911940    0.00000       Uiso       1.00
       C14          C  0.2112992  0.2524017  0.4911940    0.00000       Uiso       1.00
       C15          C  0.7475978  0.9588971  0.4911940    0.00000       Uiso       1.00
       C16          C  0.9588971  0.2112993  0.4911940    0.00000       Uiso       1.00
       C17          C  0.7887003  0.7475978  0.4911940    0.00000       Uiso       1.00
       C18          C  0.2524017  0.0411024  0.4911940    0.00000       Uiso       1.00
       C19          C  0.0108041  0.7400374  0.6810179    0.00000       Uiso       1.00
       C20          C  0.2599621  0.2707662  0.6810179    0.00000       Uiso       1.00
       C21          C  0.7292333  0.9891954  0.6810179    0.00000       Uiso       1.00
       C22          C  0.9891954  0.2599621  0.6810179    0.00000       Uiso       1.00
       C23          C  0.7400374  0.7292333  0.6810179    0.00000       Uiso       1.00
       C24          C  0.2707662  0.0108041  0.6810179    0.00000       Uiso       1.00
       C25          C  0.9783996  0.7569421  0.8689944    0.00000       Uiso       1.00
       C26          C  0.2430574  0.2214575  0.8689944    0.00000       Uiso       1.00
       C27          C  0.7785420  0.0215998  0.8689944    0.00000       Uiso       1.00
       C28          C  0.0215998  0.2430574  0.8689944    0.00000       Uiso       1.00
       C29          C  0.7569421  0.7785420  0.8689944    0.00000       Uiso       1.00
       C30          C  0.2214575  0.9783996  0.8689944    0.00000       Uiso       1.00
       C31          C  0.9767317  0.8215408  0.8665940    0.00000       Uiso       1.00
       C32          C  0.1784587  0.1551909  0.8665940    0.00000       Uiso       1.00
       C33          C  0.8448086  0.0232678  0.8665940    0.00000       Uiso       1.00
       C34          C  0.0232678  0.1784587  0.8665940    0.00000       Uiso       1.00
       C35          C  0.8215407  0.8448086  0.8665940    0.00000       Uiso       1.00
       C36          C  0.1551909  0.9767317  0.8665940    0.00000       Uiso       1.00
       C37          C  0.0054539  0.8699588  0.6738226    0.00000       Uiso       1.00
       C38          C  0.1300407  0.1354946  0.6738226    0.00000       Uiso       1.00
       C39          C  0.8645048  0.9945456  0.6738226    0.00000       Uiso       1.00
       C40          C  0.9945456  0.1300407  0.6738226    0.00000       Uiso       1.00
       C41          C  0.8699588  0.8645049  0.6738226    0.00000       Uiso       1.00
       C42          C  0.1354946  0.0054539  0.6738226    0.00000       Uiso       1.00
       C43          C  0.5725993  0.0148448  0.7606164    0.00000       Uiso       1.00
       C44          C  0.9851547  0.5577544  0.7606164    0.00000       Uiso       1.00
       C45          C  0.4422451  0.4274002  0.7606164    0.00000       Uiso       1.00
       C46          C  0.4274002  0.9851547  0.7606164    0.00000       Uiso       1.00
       C47          C  0.0148448  0.4422451  0.7606164    0.00000       Uiso       1.00
       C48          C  0.5577544  0.5725992  0.7606164    0.00000       Uiso       1.00
       C49          C  0.5146761  0.9433283  0.7584736    0.00000       Uiso       1.00
       C50          C  0.0566713  0.5713474  0.7584736    0.00000       Uiso       1.00
       C51          C  0.4286521  0.4853234  0.7584736    0.00000       Uiso       1.00
       C52          C  0.4853234  0.0566713  0.7584736    0.00000       Uiso       1.00
       C53          C  0.9433282  0.4286521  0.7584736    0.00000       Uiso       1.00
       C54          C  0.5713474  0.5146760  0.7584736    0.00000       Uiso       1.00
       C55          C  0.4430916  0.9286556  0.7610345    0.00000       Uiso       1.00
       C56          C  0.0713439  0.5144355  0.7610345    0.00000       Uiso       1.00
       C57          C  0.4855640  0.5569080  0.7610345    0.00000       Uiso       1.00
       C58          C  0.5569080  0.0713439  0.7610345    0.00000       Uiso       1.00
       C59          C  0.9286556  0.4855640  0.7610345    0.00000       Uiso       1.00
       C60          C  0.5144355  0.4430915  0.7610345    0.00000       Uiso       1.00
        H1          H  0.5243434  0.9012856  0.7575466    0.00000       Uiso       1.00
        H2          H  0.0987139  0.6230574  0.7575466    0.00000       Uiso       1.00
        H3          H  0.3769421  0.4756561  0.7575466    0.00000       Uiso       1.00
        H4          H  0.4756561  0.0987139  0.7575466    0.00000       Uiso       1.00
        H5          H  0.9012855  0.3769421  0.7575466    0.00000       Uiso       1.00
        H6          H  0.6230574  0.5243434  0.7575466    0.00000       Uiso       1.00
        H7          H  0.4024898  0.8762327  0.7621247    0.00000       Uiso       1.00
        H8          H  0.1237667  0.5262566  0.7621247    0.00000       Uiso       1.00
        H9          H  0.4737428  0.5975096  0.7621247    0.00000       Uiso       1.00
       H10          H  0.5975097  0.1237667  0.7621247    0.00000       Uiso       1.00
       H11          H  0.8762327  0.4737428  0.7621247    0.00000       Uiso       1.00
       H12          H  0.5262567  0.4024898  0.7621247    0.00000       Uiso       1.00
       H13          H  0.0584027  0.8857915  0.3434587    0.00000       Uiso       1.00
       H14          H  0.1142079  0.1726107  0.3434587    0.00000       Uiso       1.00
       H15          H  0.8273888  0.9415967  0.3434587    0.00000       Uiso       1.00
       H16          H  0.9415968  0.1142079  0.3434587    0.00000       Uiso       1.00
       H17          H  0.8857915  0.8273888  0.3434587    0.00000       Uiso       1.00
       H18          H  0.1726107  0.0584027  0.3434587    0.00000       Uiso       1.00
       H19          H  0.0655403  0.7775345  0.3551893    0.00000       Uiso       1.00
       H20          H  0.2224650  0.2880054  0.3551893    0.00000       Uiso       1.00
       H21          H  0.7119941  0.9344592  0.3551893    0.00000       Uiso       1.00
       H22          H  0.9344591  0.2224650  0.3551893    0.00000       Uiso       1.00
       H23          H  0.7775345  0.7119941  0.3551893    0.00000       Uiso       1.00
       H24          H  0.2880054  0.0655403  0.3551893    0.00000       Uiso       1.00
       H25          H  0.9567648  0.7227709  1.0098103    0.00000       Uiso       1.00
       H26          H  0.2772285  0.2339938  1.0098103    0.00000       Uiso       1.00
       H27          H  0.7660057  0.0432347  1.0098103    0.00000       Uiso       1.00
       H28          H  0.0432347  0.2772285  1.0098103    0.00000       Uiso       1.00
       H29          H  0.7227709  0.7660057  1.0098103    0.00000       Uiso       1.00
       H30          H  0.2339938  0.9567648  1.0098103    0.00000       Uiso       1.00
       H31          H  0.9541841  0.8331004  1.0067431    0.00000       Uiso       1.00
       H32          H  0.1668991  0.1210837  1.0067431    0.00000       Uiso       1.00
       H33          H  0.8789158  0.0458154  1.0067431    0.00000       Uiso       1.00
       H34          H  0.0458154  0.1668991  1.0067431    0.00000       Uiso       1.00
       H35          H  0.8331004  0.8789158  1.0067431    0.00000       Uiso       1.00
       H36          H  0.1210837  0.9541841  1.0067431    0.00000       Uiso       1.00
        N1          N  0.6796594  0.6640922  0.6750772    0.00000       Uiso       1.00
        N2          N  0.3359073  0.0155671  0.6750772    0.00000       Uiso       1.00
        N3          N  0.9844323  0.3203400  0.6750772    0.00000       Uiso       1.00
        N4          N  0.3203400  0.3359073  0.6750772    0.00000       Uiso       1.00
        N5          N  0.6640922  0.9844324  0.6750772    0.00000       Uiso       1.00
        N6          N  0.0155671  0.6796594  0.6750772    0.00000       Uiso       1.00
        C1          C  0.6140505  0.6443785  0.7658440    0.00000       Uiso       1.00
        C2          C  0.3556210  0.9696715  0.7658440    0.00000       Uiso       1.00
        C3          C  0.0303279  0.3859490  0.7658440    0.00000       Uiso       1.00
        C4          C  0.3859490  0.3556210  0.7658440    0.00000       Uiso       1.00
        C5          C  0.6443785  0.0303279  0.7658440    0.00000       Uiso       1.00
        C6          C  0.9696715  0.6140505  0.7658440    0.00000       Uiso       1.00
        H1          H  0.6043956  0.6826832  0.8362815    0.00000       Uiso       1.00
        H2          H  0.3173164  0.9217120  0.8362815    0.00000       Uiso       1.00
        H3          H  0.0782875  0.3956039  0.8362815    0.00000       Uiso       1.00
        H4          H  0.3956039  0.3173164  0.8362815    0.00000       Uiso       1.00
        H5          H  0.6826832  0.0782875  0.8362815    0.00000       Uiso       1.00
        H6          H  0.9217120  0.6043956  0.8362815    0.00000       Uiso       1.00
