data_AB-COF
_audit_creation_date              0000-00-00
_audit_creation_method            'LanYouShi'
_symmetry_space_group_name_H-M    'P1'
_cell_length_a                    16.0823994
_cell_length_b                    16.0823994
_cell_length_c                    3.4000001
_cell_angle_alpha                 90.0000000
_cell_angle_beta                  90.0000000
_cell_angle_gamma                 120.0000000
loop_
_atom_site_label
_atom_site_type_symbol
_atom_site_fract_x
_atom_site_fract_y
_atom_site_fract_z
_atom_site_U_iso_or_equiv
_atom_site_adp_type
_atom_site_occupancy
        N1          N  0.5450582  0.5359813  1.4705882    0.00000       Uiso       1.00
        N2          N  0.4549416  0.4640185  1.4705882    0.00000       Uiso       1.00
        C1          C  0.6245868  0.5263481  1.4705882    0.00000       Uiso       1.00
        C2          C  0.3754131  0.4736517  1.4705882    0.00000       Uiso       1.00
        H1          H  0.6213104  0.4610538  1.4705881    0.00000       Uiso       1.00
        H2          H  0.3786894  0.5389460  1.4705881    0.00000       Uiso       1.00
        N3          N  0.9640184  0.5090767  1.4705883    0.00000       Uiso       1.00
        N4          N  0.0359814  0.4909229  1.4705886    0.00000       Uiso       1.00
        C3          C  0.9736516  0.5982385  1.4705886    0.00000       Uiso       1.00
        C4          C  0.0263482  0.4017611  1.4705883    0.00000       Uiso       1.00
        H3          H  0.0389461  0.6602563  1.4705888    0.00000       Uiso       1.00
        H4          H  0.9610537  0.3397432  1.4705877    0.00000       Uiso       1.00
        N5          N  0.9909230  0.9549415  1.4705896    0.00000       Uiso       1.00
        N6          N  0.0090770  0.0450583  1.4705901    0.00000       Uiso       1.00
        C5          C  0.9017613  0.8754129  1.4705893    0.00000       Uiso       1.00
        C6          C  0.0982387  0.1245869  1.4705905    0.00000       Uiso       1.00
        H5          H  0.8397434  0.8786893  1.4705893    0.00000       Uiso       1.00
        H6          H  0.1602567  0.1213105  1.4705900    0.00000       Uiso       1.00
        C7          C  0.7345128  0.6002399  1.4705884    0.00000       Uiso       1.00
        C8          C  0.8657270  0.7654870  1.4705890    0.00000       Uiso       1.00
        C9          C  0.8997599  0.6342728  1.4705886    0.00000       Uiso       1.00
       C10          C  0.7670715  0.6989799  1.4705888    0.00000       Uiso       1.00
       C11          C  0.9319083  0.7329282  1.4705889    0.00000       Uiso       1.00
       C12          C  0.8010198  0.5680915  1.4705884    0.00000       Uiso       1.00
        H7          H  0.7759854  0.4917213  1.4705882    0.00000       Uiso       1.00
        H8          H  0.7157359  0.7240144  1.4705888    0.00000       Uiso       1.00
        H9          H  0.0082786  0.7842639  1.4705892    0.00000       Uiso       1.00
       C13          C  0.2654871  0.3997599  1.4705884    0.00000       Uiso       1.00
       C14          C  0.1342729  0.2345128  1.4705890    0.00000       Uiso       1.00
       C15          C  0.1002400  0.3657270  1.4705886    0.00000       Uiso       1.00
       C16          C  0.2329284  0.3010199  1.4705888    0.00000       Uiso       1.00
       C17          C  0.0680916  0.2670715  1.4705889    0.00000       Uiso       1.00
       C18          C  0.1989800  0.4319083  1.4705884    0.00000       Uiso       1.00
       H10          H  0.2240144  0.5082785  1.4705882    0.00000       Uiso       1.00
       H11          H  0.2842641  0.2759855  1.4705888    0.00000       Uiso       1.00
       H12          H  0.9917213  0.2157358  1.4705892    0.00000       Uiso       1.00
