data_crystal

_cell_length_a    27.93000
_cell_length_b    31.31000
_cell_length_c    7.89000
_cell_angle_alpha 90.00000
_cell_angle_beta  90.00000
_cell_angle_gamma 90.00000

_space_group_name_Hall 'P 1'
_space_group_name_H-M_alt  'P 1'

loop_
_symmetry_equiv_pos_as_xyz
'x,y,z' 

loop_
_atom_site_label
_atom_site_type_symbol
_atom_site_fract_x
_atom_site_fract_y
_atom_site_fract_z
C          C       0.04325   0.30579   0.89595 
C          C       0.04325   0.34088   0.78666 
C          C       0.93751   0.21142   0.26889 
C          C       0.90000   0.21144   0.38614 
H          H       0.07729   0.29225   0.93221 
H          H       0.07692   0.35365   0.74119 
H          H       0.95162   0.18099   0.22850 
H          H       0.88627   0.18140   0.43375 
C          C       0.04313   0.43610   0.26625 
C          C       0.04328   0.46705   0.13853 
C          C       0.80936   0.21154   0.94819 
C          C       0.78039   0.21140   0.09275 
H          H       0.07685   0.42379   0.31350 
H          H       0.07800   0.47720   0.09536 
H          H       0.82122   0.18146   0.89476 
H          H       0.77099   0.18044   0.14152 
C          C       0.54325   0.80579   0.39595 
C          C       0.54325   0.84088   0.28666 
C          C       0.43751   0.71142   0.76889 
C          C       0.40000   0.71144   0.88614 
H          H       0.57729   0.79225   0.43221 
H          H       0.57692   0.85365   0.24119 
H          H       0.45162   0.68099   0.72850 
H          H       0.38627   0.68140   0.93375 
C          C       0.54313   0.93610   0.76625 
C          C       0.54328   0.96705   0.63853 
C          C       0.30936   0.71154   0.44819 
C          C       0.28039   0.71140   0.59275 
H          H       0.57685   0.92379   0.81350 
H          H       0.57800   0.97720   0.59536 
H          H       0.32122   0.68146   0.39476 
H          H       0.27099   0.68044   0.64152 
C          C       0.95675   0.19421   0.89595 
C          C       0.95675   0.15912   0.78666 
C          C       0.06249   0.28858   0.26889 
C          C       0.10000   0.28856   0.38614 
H          H       0.92271   0.20775   0.93221 
H          H       0.92308   0.14635   0.74119 
H          H       0.04838   0.31901   0.22850 
H          H       0.11373   0.31860   0.43375 
C          C       0.95687   0.06390   0.26625 
C          C       0.95672   0.03295   0.13853 
C          C       0.19064   0.28846   0.94819 
C          C       0.21961   0.28860   0.09275 
H          H       0.92315   0.07621   0.31350 
H          H       0.92200   0.02280   0.09536 
H          H       0.17878   0.31854   0.89476 
H          H       0.22901   0.31956   0.14152 
C          C       0.45675   0.69421   0.39595 
C          C       0.45675   0.65912   0.28666 
C          C       0.56249   0.78858   0.76889 
C          C       0.60000   0.78856   0.88614 
H          H       0.42271   0.70775   0.43221 
H          H       0.42308   0.64635   0.24119 
H          H       0.54838   0.81901   0.72850 
H          H       0.61373   0.81860   0.93375 
C          C       0.45687   0.56390   0.76625 
C          C       0.45672   0.53295   0.63853 
C          C       0.69064   0.78846   0.44819 
C          C       0.71961   0.78860   0.59275 
H          H       0.42315   0.57621   0.81350 
H          H       0.42200   0.52280   0.59536 
H          H       0.67878   0.81854   0.39476 
H          H       0.72901   0.81956   0.64152 
C          C       0.95675   0.80579   0.10405 
C          C       0.95675   0.84088   0.21334 
C          C       0.06249   0.71142   0.73111 
C          C       0.10000   0.71144   0.61386 
H          H       0.92271   0.79225   0.06779 
H          H       0.92308   0.85365   0.25881 
H          H       0.04838   0.68099   0.77150 
H          H       0.11373   0.68140   0.56625 
C          C       0.95687   0.93610   0.73375 
C          C       0.95672   0.96705   0.86147 
C          C       0.19064   0.71154   0.05181 
C          C       0.21961   0.71140   0.90725 
H          H       0.92315   0.92379   0.68650 
H          H       0.92200   0.97720   0.90464 
H          H       0.17878   0.68146   0.10524 
H          H       0.22901   0.68044   0.85848 
C          C       0.45675   0.30579   0.60405 
C          C       0.45675   0.34088   0.71334 
C          C       0.56249   0.21142   0.23111 
C          C       0.60000   0.21144   0.11386 
H          H       0.42271   0.29225   0.56779 
H          H       0.42308   0.35365   0.75881 
H          H       0.54838   0.18099   0.27150 
H          H       0.61373   0.18140   0.06625 
C          C       0.45687   0.43610   0.23375 
C          C       0.45672   0.46705   0.36147 
C          C       0.69064   0.21154   0.55181 
C          C       0.71961   0.21140   0.40725 
H          H       0.42315   0.42379   0.18650 
H          H       0.42200   0.47720   0.40464 
H          H       0.67878   0.18146   0.60524 
H          H       0.72901   0.18044   0.35848 
C          C       0.04325   0.69421   0.10405 
C          C       0.04325   0.65912   0.21334 
C          C       0.93751   0.78858   0.73111 
C          C       0.90000   0.78856   0.61386 
H          H       0.07729   0.70775   0.06779 
H          H       0.07692   0.64635   0.25881 
H          H       0.95162   0.81901   0.77150 
H          H       0.88627   0.81860   0.56625 
C          C       0.04313   0.56390   0.73375 
C          C       0.04328   0.53295   0.86147 
C          C       0.80936   0.78846   0.05181 
C          C       0.78039   0.78860   0.90725 
H          H       0.07685   0.57621   0.68650 
H          H       0.07800   0.52280   0.90464 
H          H       0.82122   0.81854   0.10524 
H          H       0.77099   0.81956   0.85848 
C          C       0.54325   0.19421   0.60405 
C          C       0.54325   0.15912   0.71334 
C          C       0.43751   0.28858   0.23111 
C          C       0.40000   0.28856   0.11386 
H          H       0.57729   0.20775   0.56779 
H          H       0.57692   0.14635   0.75881 
H          H       0.45162   0.31901   0.27150 
H          H       0.38627   0.31860   0.06625 
C          C       0.54313   0.06390   0.23375 
C          C       0.54328   0.03295   0.36147 
C          C       0.30936   0.28846   0.55181 
C          C       0.28039   0.28860   0.40725 
H          H       0.57685   0.07621   0.18650 
H          H       0.57800   0.02280   0.40464 
H          H       0.32122   0.31854   0.60524 
H          H       0.27099   0.31956   0.35848 
C          C       0.95675   0.69421   0.10405 
C          C       0.95675   0.65912   0.21334 
C          C       0.06249   0.78858   0.73111 
C          C       0.10000   0.78856   0.61386 
H          H       0.92271   0.70775   0.06779 
H          H       0.92308   0.64635   0.25881 
H          H       0.04838   0.81901   0.77150 
H          H       0.11373   0.81860   0.56625 
C          C       0.95687   0.56390   0.73375 
C          C       0.95672   0.53295   0.86147 
C          C       0.19064   0.78846   0.05181 
C          C       0.21961   0.78860   0.90725 
H          H       0.92315   0.57621   0.68650 
H          H       0.92200   0.52280   0.90464 
H          H       0.17878   0.81854   0.10524 
H          H       0.22901   0.81956   0.85848 
C          C       0.45675   0.19421   0.60405 
C          C       0.45675   0.15912   0.71334 
C          C       0.56249   0.28858   0.23111 
C          C       0.60000   0.28856   0.11386 
H          H       0.42271   0.20775   0.56779 
H          H       0.42308   0.14635   0.75881 
H          H       0.54838   0.31901   0.27150 
H          H       0.61373   0.31860   0.06625 
C          C       0.45687   0.06390   0.23375 
C          C       0.45672   0.03295   0.36147 
C          C       0.69064   0.28846   0.55181 
C          C       0.71961   0.28860   0.40725 
H          H       0.42315   0.07621   0.18650 
H          H       0.42200   0.02280   0.40464 
H          H       0.67878   0.31854   0.60524 
H          H       0.72901   0.31956   0.35848 
C          C       0.04325   0.80579   0.10405 
C          C       0.04325   0.84088   0.21334 
C          C       0.93751   0.71142   0.73111 
C          C       0.90000   0.71144   0.61386 
H          H       0.07729   0.79225   0.06779 
H          H       0.07692   0.85365   0.25881 
H          H       0.95162   0.68099   0.77150 
H          H       0.88627   0.68140   0.56625 
C          C       0.04313   0.93610   0.73375 
C          C       0.04328   0.96705   0.86147 
C          C       0.80936   0.71154   0.05181 
C          C       0.78039   0.71140   0.90725 
H          H       0.07685   0.92379   0.68650 
H          H       0.07800   0.97720   0.90464 
H          H       0.82122   0.68146   0.10524 
H          H       0.77099   0.68044   0.85848 
C          C       0.54325   0.30579   0.60405 
C          C       0.54325   0.34088   0.71334 
C          C       0.43751   0.21142   0.23111 
C          C       0.40000   0.21144   0.11386 
H          H       0.57729   0.29225   0.56779 
H          H       0.57692   0.35365   0.75881 
H          H       0.45162   0.18099   0.27150 
H          H       0.38627   0.18140   0.06625 
C          C       0.54313   0.43610   0.23375 
C          C       0.54328   0.46705   0.36147 
C          C       0.30936   0.21154   0.55181 
C          C       0.28039   0.21140   0.40725 
H          H       0.57685   0.42379   0.18650 
H          H       0.57800   0.47720   0.40464 
H          H       0.32122   0.18146   0.60524 
H          H       0.27099   0.18044   0.35848 
C          C       0.04325   0.19421   0.89595 
C          C       0.04325   0.15912   0.78666 
C          C       0.93751   0.28858   0.26889 
C          C       0.90000   0.28856   0.38614 
H          H       0.07729   0.20775   0.93221 
H          H       0.07692   0.14635   0.74119 
H          H       0.95162   0.31901   0.22850 
H          H       0.88627   0.31860   0.43375 
C          C       0.04313   0.06390   0.26625 
C          C       0.04328   0.03295   0.13853 
C          C       0.80936   0.28846   0.94819 
C          C       0.78039   0.28860   0.09275 
H          H       0.07685   0.07621   0.31350 
H          H       0.07800   0.02280   0.09536 
H          H       0.82122   0.31854   0.89476 
H          H       0.77099   0.31956   0.14152 
C          C       0.54325   0.69421   0.39595 
C          C       0.54325   0.65912   0.28666 
C          C       0.43751   0.78858   0.76889 
C          C       0.40000   0.78856   0.88614 
H          H       0.57729   0.70775   0.43221 
H          H       0.57692   0.64635   0.24119 
H          H       0.45162   0.81901   0.72850 
H          H       0.38627   0.81860   0.93375 
C          C       0.54313   0.56390   0.76625 
C          C       0.54328   0.53295   0.63853 
C          C       0.30936   0.78846   0.44819 
C          C       0.28039   0.78860   0.59275 
H          H       0.57685   0.57621   0.81350 
H          H       0.57800   0.52280   0.59536 
H          H       0.32122   0.81854   0.39476 
H          H       0.27099   0.81956   0.64152 
C          C       0.95675   0.30579   0.89595 
C          C       0.95675   0.34088   0.78666 
C          C       0.06249   0.21142   0.26889 
C          C       0.10000   0.21144   0.38614 
H          H       0.92271   0.29225   0.93221 
H          H       0.92308   0.35365   0.74119 
H          H       0.04838   0.18099   0.22850 
H          H       0.11373   0.18140   0.43375 
C          C       0.95687   0.43610   0.26625 
C          C       0.95672   0.46705   0.13853 
C          C       0.19064   0.21154   0.94819 
C          C       0.21961   0.21140   0.09275 
H          H       0.92315   0.42379   0.31350 
H          H       0.92200   0.47720   0.09536 
H          H       0.17878   0.18146   0.89476 
H          H       0.22901   0.18044   0.14152 
C          C       0.45675   0.80579   0.39595 
C          C       0.45675   0.84088   0.28666 
C          C       0.56249   0.71142   0.76889 
C          C       0.60000   0.71144   0.88614 
H          H       0.42271   0.79225   0.43221 
H          H       0.42308   0.85365   0.24119 
H          H       0.54838   0.68099   0.72850 
H          H       0.61373   0.68140   0.93375 
C          C       0.45687   0.93610   0.76625 
C          C       0.45672   0.96705   0.63853 
C          C       0.69064   0.71154   0.44819 
C          C       0.71961   0.71140   0.59275 
H          H       0.42315   0.92379   0.81350 
H          H       0.42200   0.97720   0.59536 
H          H       0.67878   0.68146   0.39476 
H          H       0.72901   0.68044   0.64152 
C          C       0.00000   0.25000   0.08179 
C          C       0.50000   0.75000   0.58179 
C          C       0.00000   0.75000   0.91821 
C          C       0.50000   0.25000   0.41821 
C          C       0.00000   0.28888   0.96032 
C          C       0.00000   0.35897   0.73397 
N          N       0.00000   0.39361   0.61596 
C          C       0.00000   0.48339   0.07016 
C          C       0.00000   0.42066   0.33077 
C          C       0.00000   0.38593   0.45482 
H          H       0.00000   0.35344   0.40996 
C          C       0.50000   0.78888   0.46032 
C          C       0.50000   0.85897   0.23397 
N          N       0.50000   0.89361   0.11596 
C          C       0.50000   0.98339   0.57016 
C          C       0.50000   0.92066   0.83077 
C          C       0.50000   0.88593   0.95482 
H          H       0.50000   0.85344   0.90996 
C          C       0.00000   0.21112   0.96032 
C          C       0.00000   0.14103   0.73397 
N          N       0.00000   0.10639   0.61596 
C          C       0.00000   0.01661   0.07016 
C          C       0.00000   0.07934   0.33077 
C          C       0.00000   0.11407   0.45482 
H          H       0.00000   0.14656   0.40996 
C          C       0.50000   0.71112   0.46032 
C          C       0.50000   0.64103   0.23397 
N          N       0.50000   0.60639   0.11596 
C          C       0.50000   0.51661   0.57016 
C          C       0.50000   0.57934   0.83077 
C          C       0.50000   0.61407   0.95482 
H          H       0.50000   0.64656   0.90996 
C          C       0.00000   0.78888   0.03968 
C          C       0.00000   0.85897   0.26603 
N          N       0.00000   0.89361   0.38404 
C          C       0.00000   0.98339   0.92984 
C          C       0.00000   0.92066   0.66923 
C          C       0.00000   0.88593   0.54518 
H          H       0.00000   0.85344   0.59004 
C          C       0.50000   0.28888   0.53968 
C          C       0.50000   0.35897   0.76603 
N          N       0.50000   0.39361   0.88404 
C          C       0.50000   0.48339   0.42984 
C          C       0.50000   0.42066   0.16923 
C          C       0.50000   0.38593   0.04518 
H          H       0.50000   0.35344   0.09004 
C          C       0.00000   0.71112   0.03968 
C          C       0.00000   0.64103   0.26603 
N          N       0.00000   0.60639   0.38404 
C          C       0.00000   0.51661   0.92984 
C          C       0.00000   0.57934   0.66923 
C          C       0.00000   0.61407   0.54518 
H          H       0.00000   0.64656   0.59004 
C          C       0.50000   0.21112   0.53968 
C          C       0.50000   0.14103   0.76603 
N          N       0.50000   0.10639   0.88404 
C          C       0.50000   0.01661   0.42984 
C          C       0.50000   0.07934   0.16923 
C          C       0.50000   0.11407   0.04518 
H          H       0.50000   0.14656   0.09004 
C          C       0.95630   0.25000   0.20359 
C          C       0.88105   0.25000   0.44477 
N          N       0.84492   0.25000   0.57269 
C          C       0.76529   0.25000   0.17038 
C          C       0.82385   0.25000   0.87545 
C          C       0.85851   0.25000   0.73637 
H          H       0.60414   0.25000   0.74007 
C          C       0.45630   0.75000   0.70359 
C          C       0.38105   0.75000   0.94477 
N          N       0.34492   0.75000   0.07269 
C          C       0.26529   0.75000   0.67038 
C          C       0.32385   0.75000   0.37545 
C          C       0.35851   0.75000   0.23637 
H          H       0.10414   0.75000   0.24007 
C          C       0.04370   0.25000   0.20359 
C          C       0.11895   0.25000   0.44477 
N          N       0.15508   0.25000   0.57269 
C          C       0.23471   0.25000   0.17038 
C          C       0.17615   0.25000   0.87545 
C          C       0.14149   0.25000   0.73637 
H          H       0.39586   0.25000   0.74007 
C          C       0.54370   0.75000   0.70359 
C          C       0.61895   0.75000   0.94477 
N          N       0.65508   0.75000   0.07269 
C          C       0.73471   0.75000   0.67038 
C          C       0.67615   0.75000   0.37545 
C          C       0.64149   0.75000   0.23637 
H          H       0.89586   0.75000   0.24007 
C          C       0.04370   0.75000   0.79641 
C          C       0.11895   0.75000   0.55523 
N          N       0.15508   0.75000   0.42731 
C          C       0.23471   0.75000   0.82962 
C          C       0.17615   0.75000   0.12455 
C          C       0.14149   0.75000   0.26363 
H          H       0.39586   0.75000   0.25993 
C          C       0.54370   0.25000   0.29641 
C          C       0.61895   0.25000   0.05523 
N          N       0.65508   0.25000   0.92731 
C          C       0.73471   0.25000   0.32962 
C          C       0.67615   0.25000   0.62455 
C          C       0.64149   0.25000   0.76363 
H          H       0.89586   0.25000   0.75993 
C          C       0.95630   0.75000   0.79641 
C          C       0.88105   0.75000   0.55523 
N          N       0.84492   0.75000   0.42731 
C          C       0.76529   0.75000   0.82962 
C          C       0.82385   0.75000   0.12455 
C          C       0.85851   0.75000   0.26363 
H          H       0.60414   0.75000   0.25993 
C          C       0.45630   0.25000   0.29641 
C          C       0.38105   0.25000   0.05523 
N          N       0.34492   0.25000   0.92731 
C          C       0.26529   0.25000   0.32962 
C          C       0.32385   0.25000   0.62455 
C          C       0.35851   0.25000   0.76363 
H          H       0.10414   0.25000   0.75993 
