data_crystal
 
_cell_length_a    34.80260
_cell_length_b    34.80360
_cell_length_c    8.13840
_cell_angle_alpha 85.01700
_cell_angle_beta  85.15980
_cell_angle_gamma 121.47150
 
_symmetry_space_group_name_Hall 'P 1'
_symmetry_space_group_name_H-M  'P 1'
 
loop_
_symmetry_equiv_pos_as_xyz
 'x,y,z' 
 
loop_
_atom_site_label
_atom_site_type_symbol
_atom_site_fract_x
_atom_site_fract_y
_atom_site_fract_z
_atom_site_charge
C          C       0.71106   0.35678   0.28571   0.0000000000
C          C       0.64170   0.35835   0.24965   0.0000000000
C          C       0.64322   0.28899   0.21333   0.0000000000
C          C       0.68836   0.31166   0.24949   0.0000000000
C          C       0.68608   0.37833   0.29306   0.0000000000
C          C       0.62169   0.31400   0.20611   0.0000000000
H          H       0.70518   0.29484   0.24947   0.0000000000
H          H       0.70075   0.40947   0.33193   0.0000000000
H          H       0.59052   0.29936   0.16728   0.0000000000
C          C       0.75743   0.37992   0.31028   0.0000000000
C          C       0.61825   0.38179   0.24978   0.0000000000
C          C       0.62005   0.24263   0.18876   0.0000000000
C          C       0.28756   0.64029   0.27466   0.0000000000
C          C       0.35815   0.64186   0.25048   0.0000000000
C          C       0.35968   0.71245   0.22578   0.0000000000
C          C       0.77562   0.35756   0.39785   0.0000000000
C          C       0.34409   0.73827   0.14296   0.0000000000
C          C       0.64172   0.42977   0.20557   0.0000000000
C          C       0.26082   0.59779   0.21807   0.0000000000
C          C       0.57346   0.21223   0.25639   0.0000000000
C          C       0.40082   0.65917   0.14935   0.0000000000
C          C       0.64237   0.22444   0.10140   0.0000000000
C          C       0.26174   0.65585   0.35723   0.0000000000
C          C       0.57030   0.35831   0.29417   0.0000000000
C          C       0.40220   0.73920   0.28243   0.0000000000
C          C       0.78783   0.42651   0.24246   0.0000000000
C          C       0.34087   0.59917   0.35179   0.0000000000
C          C       0.82220   0.38035   0.41319   0.0000000000
C          C       0.36755   0.78614   0.12366   0.0000000000
C          C       0.61864   0.45301   0.20949   0.0000000000
C          C       0.21290   0.57326   0.23827   0.0000000000
C          C       0.55047   0.16581   0.23960   0.0000000000
C          C       0.42439   0.63639   0.14875   0.0000000000
C          C       0.61956   0.17786   0.08614   0.0000000000
C          C       0.21387   0.63237   0.37634   0.0000000000
C          C       0.54705   0.38139   0.29061   0.0000000000
C          C       0.42669   0.78713   0.26209   0.0000000000
C          C       0.83425   0.44948   0.25932   0.0000000000
C          C       0.36364   0.57560   0.35260   0.0000000000
C          C       0.85248   0.42657   0.34196   0.0000000000
C          C       0.57053   0.42952   0.25015   0.0000000000
C          C       0.57335   0.14758   0.15723   0.0000000000
C          C       0.18866   0.59062   0.31613   0.0000000000
C          C       0.40603   0.59398   0.25072   0.0000000000
C          C       0.40931   0.81137   0.18394   0.0000000000
H          H       0.75507   0.32423   0.45196   0.0000000000
H          H       0.31445   0.72219   0.09632   0.0000000000
H          H       0.67624   0.44869   0.16911   0.0000000000
H          H       0.27619   0.58364   0.16057   0.0000000000
H          H       0.55575   0.22338   0.32212   0.0000000000
H          H       0.41589   0.68950   0.07403   0.0000000000
H          H       0.67569   0.24498   0.04739   0.0000000000
H          H       0.27782   0.68549   0.40381   0.0000000000
H          H       0.55140   0.32377   0.33050   0.0000000000
H          H       0.41637   0.72384   0.34008   0.0000000000
H          H       0.77667   0.44424   0.17658   0.0000000000
H          H       0.31056   0.58409   0.42705   0.0000000000
H          H       0.83385   0.36287   0.47758   0.0000000000
H          H       0.35397   0.80243   0.06451   0.0000000000
H          H       0.63795   0.48777   0.18230   0.0000000000
H          H       0.19591   0.54298   0.19312   0.0000000000
H          H       0.51691   0.14522   0.29129   0.0000000000
H          H       0.45491   0.65090   0.07185   0.0000000000
H          H       0.63702   0.16621   0.02192   0.0000000000
H          H       0.19758   0.64593   0.43530   0.0000000000
H          H       0.51231   0.36207   0.31793   0.0000000000
H          H       0.45698   0.80412   0.30730   0.0000000000
H          H       0.85485   0.48305   0.20749   0.0000000000
H          H       0.34915   0.54506   0.42958   0.0000000000
C          C       0.42929   0.57071   0.25078   0.0000000000
C          C       0.47635   0.52366   0.25071   0.0000000000
C          C       0.54705   0.45300   0.25033   0.0000000000
C          C       0.49961   0.50041   0.25061   0.0000000000
C          C       0.43269   0.85929   0.16944   0.0000000000
C          C       0.48044   0.95622   0.15090   0.0000000000
C          C       0.55080   0.10035   0.14974   0.0000000000
C          C       0.50415   0.00405   0.14647   0.0000000000
C          C       0.14074   0.56722   0.33047   0.0000000000
C          C       0.04383   0.51945   0.34873   0.0000000000
C          C       0.89971   0.44911   0.34957   0.0000000000
C          C       0.99600   0.49574   0.35307   0.0000000000
C          C       0.47575   0.59325   0.27119   0.0000000000
C          C       0.49893   0.57010   0.27102   0.0000000000
H          H       0.49305   0.62673   0.28778   0.0000000000
H          H       0.53245   0.58740   0.28729   0.0000000000
C          C       0.50537   0.43586   0.35783   0.0000000000
C          C       0.48184   0.45866   0.35673   0.0000000000
H          H       0.49164   0.40662   0.44144   0.0000000000
H          H       0.45190   0.44487   0.43660   0.0000000000
C          C       0.41052   0.88049   0.23258   0.0000000000
C          C       0.43409   0.92812   0.22431   0.0000000000
H          H       0.37711   0.86132   0.28751   0.0000000000
H          H       0.41711   0.94207   0.27484   0.0000000000
C          C       0.57103   0.07552   0.19469   0.0000000000
C          C       0.54811   0.02823   0.19323   0.0000000000
H          H       0.60247   0.09157   0.23188   0.0000000000
H          H       0.56364   0.01146   0.22945   0.0000000000
C          C       0.11286   0.52107   0.40565   0.0000000000
C          C       0.06516   0.49763   0.41501   0.0000000000
H          H       0.12713   0.50422   0.45487   0.0000000000
H          H       0.04607   0.46435   0.47144   0.0000000000
C          C       0.92375   0.49279   0.39825   0.0000000000
C          C       0.97097   0.51554   0.40110   0.0000000000
H          H       0.90702   0.50846   0.43258   0.0000000000
H          H       0.98696   0.54685   0.43912   0.0000000000
C          C       0.40674   0.52426   0.23039   0.0000000000
C          C       0.42989   0.50108   0.23048   0.0000000000
H          H       0.37325   0.50696   0.21382   0.0000000000
H          H       0.41260   0.46757   0.21418   0.0000000000
C          C       0.56413   0.49474   0.14299   0.0000000000
C          C       0.54131   0.51825   0.14436   0.0000000000
H          H       0.59332   0.50852   0.05928   0.0000000000
H          H       0.55506   0.54824   0.06459   0.0000000000
C          C       0.11953   0.58940   0.26702   0.0000000000
C          C       0.07191   0.56582   0.27516   0.0000000000
H          H       0.13869   0.62281   0.21199   0.0000000000
H          H       0.05795   0.58280   0.22443   0.0000000000
C          C       0.92452   0.42887   0.30484   0.0000000000
C          C       0.97181   0.45179   0.30639   0.0000000000
H          H       0.90845   0.39744   0.26772   0.0000000000
H          H       0.98856   0.43626   0.27033   0.0000000000
C          C       0.47882   0.88719   0.09437   0.0000000000
C          C       0.50226   0.93490   0.08489   0.0000000000
H          H       0.49567   0.87294   0.04534   0.0000000000
H          H       0.53552   0.95400   0.02855   0.0000000000
C          C       0.50711   0.07632   0.10099   0.0000000000
C          C       0.48435   0.02910   0.09823   0.0000000000
H          H       0.49144   0.09306   0.06650   0.0000000000
H          H       0.45303   0.01312   0.06014   0.0000000000
N          N       0.33516   0.66484   0.25032   0.0000000000
C          C       0.71106   0.35678   0.78572   0.0000000000
C          C       0.64170   0.35835   0.74965   0.0000000000
C          C       0.64322   0.28899   0.71333   0.0000000000
C          C       0.68836   0.31166   0.74950   0.0000000000
C          C       0.68608   0.37833   0.79306   0.0000000000
C          C       0.62169   0.31400   0.70611   0.0000000000
H          H       0.70518   0.29484   0.74947   0.0000000000
H          H       0.70075   0.40947   0.83193   0.0000000000
H          H       0.59052   0.29936   0.66727   0.0000000000
C          C       0.75743   0.37992   0.81028   0.0000000000
C          C       0.61825   0.38179   0.74978   0.0000000000
C          C       0.62005   0.24263   0.68876   0.0000000000
C          C       0.28756   0.64029   0.77466   0.0000000000
C          C       0.35815   0.64186   0.75048   0.0000000000
C          C       0.35968   0.71245   0.72578   0.0000000000
C          C       0.77562   0.35756   0.89785   0.0000000000
C          C       0.34409   0.73827   0.64296   0.0000000000
C          C       0.64172   0.42977   0.70557   0.0000000000
C          C       0.26082   0.59779   0.71807   0.0000000000
C          C       0.57346   0.21223   0.75639   0.0000000000
C          C       0.40082   0.65917   0.64935   0.0000000000
C          C       0.64237   0.22444   0.60140   0.0000000000
C          C       0.26174   0.65585   0.85723   0.0000000000
C          C       0.57030   0.35831   0.79417   0.0000000000
C          C       0.40220   0.73920   0.78243   0.0000000000
C          C       0.78783   0.42651   0.74246   0.0000000000
C          C       0.34087   0.59917   0.85179   0.0000000000
C          C       0.82220   0.38035   0.91319   0.0000000000
C          C       0.36755   0.78614   0.62366   0.0000000000
C          C       0.61864   0.45301   0.70949   0.0000000000
C          C       0.21290   0.57326   0.73827   0.0000000000
C          C       0.55047   0.16581   0.73960   0.0000000000
C          C       0.42439   0.63639   0.64875   0.0000000000
C          C       0.61956   0.17786   0.58613   0.0000000000
C          C       0.21387   0.63237   0.87634   0.0000000000
C          C       0.54705   0.38139   0.79061   0.0000000000
C          C       0.42669   0.78713   0.76209   0.0000000000
C          C       0.83425   0.44948   0.75932   0.0000000000
C          C       0.36364   0.57560   0.85260   0.0000000000
C          C       0.85248   0.42657   0.84196   0.0000000000
C          C       0.57053   0.42952   0.75015   0.0000000000
C          C       0.57335   0.14758   0.65722   0.0000000000
C          C       0.18866   0.59062   0.81614   0.0000000000
C          C       0.40603   0.59398   0.75072   0.0000000000
C          C       0.40931   0.81137   0.68395   0.0000000000
H          H       0.75507   0.32423   0.95196   0.0000000000
H          H       0.31445   0.72219   0.59632   0.0000000000
H          H       0.67624   0.44869   0.66911   0.0000000000
H          H       0.27619   0.58364   0.66058   0.0000000000
H          H       0.55575   0.22338   0.82212   0.0000000000
H          H       0.41589   0.68950   0.57403   0.0000000000
H          H       0.67569   0.24498   0.54740   0.0000000000
H          H       0.27782   0.68549   0.90381   0.0000000000
H          H       0.55140   0.32377   0.83051   0.0000000000
H          H       0.41637   0.72384   0.84008   0.0000000000
H          H       0.77667   0.44424   0.67658   0.0000000000
H          H       0.31056   0.58409   0.92705   0.0000000000
H          H       0.83385   0.36287   0.97758   0.0000000000
H          H       0.35397   0.80243   0.56451   0.0000000000
H          H       0.63795   0.48777   0.68230   0.0000000000
H          H       0.19591   0.54298   0.69312   0.0000000000
H          H       0.51691   0.14522   0.79129   0.0000000000
H          H       0.45491   0.65090   0.57185   0.0000000000
H          H       0.63702   0.16621   0.52192   0.0000000000
H          H       0.19758   0.64593   0.93530   0.0000000000
H          H       0.51231   0.36207   0.81793   0.0000000000
H          H       0.45698   0.80412   0.80730   0.0000000000
H          H       0.85485   0.48305   0.70749   0.0000000000
H          H       0.34915   0.54506   0.92958   0.0000000000
C          C       0.42929   0.57071   0.75078   0.0000000000
C          C       0.47635   0.52366   0.75071   0.0000000000
C          C       0.54705   0.45300   0.75033   0.0000000000
C          C       0.49961   0.50041   0.75061   0.0000000000
C          C       0.43269   0.85929   0.66944   0.0000000000
C          C       0.48044   0.95622   0.65090   0.0000000000
C          C       0.55080   0.10035   0.64974   0.0000000000
C          C       0.50415   0.00405   0.64647   0.0000000000
C          C       0.14074   0.56722   0.83047   0.0000000000
C          C       0.04383   0.51945   0.84873   0.0000000000
C          C       0.89971   0.44911   0.84957   0.0000000000
C          C       0.99600   0.49574   0.85306   0.0000000000
C          C       0.47575   0.59325   0.77119   0.0000000000
C          C       0.49893   0.57010   0.77102   0.0000000000
H          H       0.49305   0.62673   0.78778   0.0000000000
H          H       0.53245   0.58740   0.78729   0.0000000000
C          C       0.50537   0.43586   0.85783   0.0000000000
C          C       0.48184   0.45866   0.85673   0.0000000000
H          H       0.49164   0.40662   0.94144   0.0000000000
H          H       0.45190   0.44487   0.93660   0.0000000000
C          C       0.41052   0.88049   0.73258   0.0000000000
C          C       0.43409   0.92812   0.72431   0.0000000000
H          H       0.37711   0.86132   0.78751   0.0000000000
H          H       0.41711   0.94207   0.77484   0.0000000000
C          C       0.57103   0.07552   0.69469   0.0000000000
C          C       0.54811   0.02823   0.69323   0.0000000000
H          H       0.60247   0.09157   0.73188   0.0000000000
H          H       0.56364   0.01146   0.72945   0.0000000000
C          C       0.11286   0.52107   0.90565   0.0000000000
C          C       0.06516   0.49763   0.91501   0.0000000000
H          H       0.12713   0.50422   0.95487   0.0000000000
H          H       0.04607   0.46435   0.97144   0.0000000000
C          C       0.92375   0.49279   0.89824   0.0000000000
C          C       0.97097   0.51554   0.90110   0.0000000000
H          H       0.90702   0.50846   0.93258   0.0000000000
H          H       0.98696   0.54685   0.93912   0.0000000000
C          C       0.40674   0.52426   0.73039   0.0000000000
C          C       0.42989   0.50108   0.73048   0.0000000000
H          H       0.37325   0.50696   0.71383   0.0000000000
H          H       0.41260   0.46757   0.71418   0.0000000000
C          C       0.56413   0.49474   0.64299   0.0000000000
C          C       0.54131   0.51825   0.64436   0.0000000000
H          H       0.59332   0.50852   0.55928   0.0000000000
H          H       0.55506   0.54824   0.56459   0.0000000000
C          C       0.11953   0.58940   0.76702   0.0000000000
C          C       0.07191   0.56582   0.77517   0.0000000000
H          H       0.13869   0.62281   0.71198   0.0000000000
H          H       0.05795   0.58280   0.72444   0.0000000000
C          C       0.92452   0.42887   0.80484   0.0000000000
C          C       0.97181   0.45179   0.80639   0.0000000000
H          H       0.90845   0.39744   0.76772   0.0000000000
H          H       0.98856   0.43626   0.77033   0.0000000000
C          C       0.47882   0.88719   0.59437   0.0000000000
C          C       0.50226   0.93490   0.58488   0.0000000000
H          H       0.49567   0.87294   0.54534   0.0000000000
H          H       0.53552   0.95400   0.52854   0.0000000000
C          C       0.50711   0.07632   0.60098   0.0000000000
C          C       0.48435   0.02910   0.59823   0.0000000000
H          H       0.49144   0.09306   0.56651   0.0000000000
H          H       0.45303   0.01312   0.56014   0.0000000000
N          N       0.33516   0.66484   0.75032   0.0000000000
