data_crystal
 
_cell_length_a    26.97800
_cell_length_b    27.25110
_cell_length_c    8.45420
_cell_angle_alpha 89.69760
_cell_angle_beta  89.38900
_cell_angle_gamma 60.33100
 
_symmetry_space_group_name_Hall 'P 1'
_symmetry_space_group_name_H-M  'P 1'
 
loop_
_symmetry_equiv_pos_as_xyz
 'x,y,z' 
 
loop_
_atom_site_label
_atom_site_type_symbol
_atom_site_fract_x
_atom_site_fract_y
_atom_site_fract_z
_atom_site_charge
C          C       1.23485  -1.38117  -0.26271   0.0000000000
C          C       1.14639  -1.38072  -0.26025   0.0000000000
C          C       1.23387  -1.46813  -0.26204   0.0000000000
N          N       1.26208  -1.43844  -0.26177   0.0000000000
N          N       1.17598  -1.43801  -0.26198   0.0000000000
N          N       1.17703  -1.35353  -0.26143   0.0000000000
C          C       1.26525  -1.35118  -0.26482   0.0000000000
C          C       1.08602  -1.35031  -0.25533   0.0000000000
C          C       1.26360  -1.52801  -0.26182   0.0000000000
C          C       1.32271  -1.37677  -0.21485   0.0000000000
C          C       1.05337  -1.37544  -0.30192   0.0000000000
C          C       1.23574  -1.55910  -0.29753   0.0000000000
C          C       1.32248  -1.55931  -0.22561   0.0000000000
C          C       1.05594  -1.29358  -0.20191   0.0000000000
C          C       1.23929  -1.29434  -0.31697   0.0000000000
C          C       1.26933  -1.26432  -0.31846   0.0000000000
C          C       0.99594  -1.26346  -0.19397   0.0000000000
C          C       1.35209  -1.61877  -0.22524   0.0000000000
C          C       1.26532  -1.61859  -0.29763   0.0000000000
C          C       0.99332  -1.34526  -0.29475   0.0000000000
C          C       1.35272  -1.34670  -0.21552   0.0000000000
C          C       1.50885  -1.10644  -0.24404   0.0000000000
C          C       0.59756  -1.10710  -0.22548   0.0000000000
C          C       1.45995  -1.08853  -0.33980   0.0000000000
C          C       0.62907  -1.08945  -0.13105   0.0000000000
C          C       1.42880  -1.11746  -0.34454   0.0000000000
C          C       0.68920  -1.11833  -0.12878   0.0000000000
C          C       1.44751  -1.16819  -0.25964   0.0000000000
C          C       0.72076  -1.16870  -0.21560   0.0000000000
C          C       1.49727  -1.18842  -0.16859   0.0000000000
C          C       0.69064  -1.18925  -0.30269   0.0000000000
C          C       1.52618  -1.15745  -0.15923   0.0000000000
C          C       0.63073  -1.15834  -0.30968   0.0000000000
H          H       1.44630  -1.05336  -0.40773   0.0000000000
H          H       0.60781  -1.05430  -0.06307   0.0000000000
H          H       1.39271  -1.10160  -0.41165   0.0000000000
H          H       0.70971  -1.10269  -0.06214   0.0000000000
H          H       1.51234  -1.22532  -0.10637   0.0000000000
H          H       0.71213  -1.22651  -0.36362   0.0000000000
H          H       1.56087  -1.17294  -0.08852   0.0000000000
H          H       0.61121  -1.17402  -0.37842   0.0000000000
C          C       1.45172  -0.98427  -0.18535   0.0000000000
C          C       0.53446  -0.98562  -0.29118   0.0000000000
C          C       1.42130  -0.92485  -0.19650   0.0000000000
C          C       0.50574  -0.92615  -0.28975   0.0000000000
H          H       1.43026  -1.00317  -0.14008   0.0000000000
H          H       0.57545  -1.00543  -0.33155   0.0000000000
H          H       1.37917  -0.90561  -0.16574   0.0000000000
H          H       0.52964  -0.90792  -0.31904   0.0000000000
C          C       1.41733  -1.19806  -0.26373   0.0000000000
C          C       0.78086  -1.19787  -0.21770   0.0000000000
C          C       1.36261  -1.17570  -0.19399   0.0000000000
C          C       0.81137  -1.17362  -0.28919   0.0000000000
C          C       1.33319  -1.20576  -0.19421   0.0000000000
C          C       0.87154  -1.20363  -0.29668   0.0000000000
C          C       1.35643  -1.25957  -0.26613   0.0000000000
C          C       0.90330  -1.25857  -0.23119   0.0000000000
C          C       1.41135  -1.28216  -0.33667   0.0000000000
C          C       0.87214  -1.28160  -0.15681   0.0000000000
C          C       1.44147  -1.25210  -0.33465   0.0000000000
C          C       0.81267  -1.25230  -0.15128   0.0000000000
H          H       0.78988  -0.13408  -0.33809   0.0000000000
H          H       0.89212  -0.18515  -0.35209   0.0000000000
H          H       1.42981  -1.32082  -0.39110   0.0000000000
H          H       1.48121  -1.26988  -0.38585   0.0000000000
C          C       0.43488  -0.79981  -0.34700   0.0000000000
C          C       1.36480  -0.79957  -0.16894   0.0000000000
C          C       0.40521  -0.74070  -0.34798   0.0000000000
C          C       1.33390  -0.74004  -0.17336   0.0000000000
H          H       1.34856  -0.81827  -0.09625   0.0000000000
H          H       1.29702  -0.71917  -0.10789   0.0000000000
N          N       0.53834  -1.07669  -0.23491   0.0000000000
C          C       0.50922  -1.01768  -0.23697   0.0000000000
C          C       0.44717  -0.89299  -0.24826   0.0000000000
C          C       0.41657  -0.83235  -0.25599   0.0000000000
C          C       0.35391  -0.70916  -0.26192   0.0000000000
H          H       1.34319  -1.41772  -0.17583   0.0000000000
H          H       1.07317  -1.41619  -0.34242   0.0000000000
H          H       1.19329  -1.53850  -0.32494   0.0000000000
H          H       1.34455  -1.53894  -0.19805   0.0000000000
H          H       1.07767  -1.27367  -0.16639   0.0000000000
H          H       1.19801  -1.27418  -0.35555   0.0000000000
C          C       1.32646  -1.28991  -0.26691   0.0000000000
C          C       0.96358  -1.28882  -0.23997   0.0000000000
C          C       1.32405  -1.64942  -0.26180   0.0000000000
H          H       1.39394  -1.36656  -0.17653   0.0000000000
H          H       0.97130  -1.36490  -0.33055   0.0000000000
H          H       1.24912  -1.22339  -0.35818   0.0000000000
H          H       0.97602  -1.22282  -0.15264   0.0000000000
H          H       1.24362  -1.63932  -0.32533   0.0000000000
H          H       1.39455  -1.63976  -0.19709   0.0000000000
N          N       0.48061  -0.81829  -0.44317   0.0000000000
S          S       0.49148  -0.76802  -0.52571   0.0000000000
N          N       0.43067  -0.71907  -0.43939   0.0000000000
N          N       0.33320  -0.12616  -0.11852   0.0000000000
S          S       0.26999  -0.11467  -0.04537   0.0000000000
N          N       0.28308  -0.17759  -0.11722   0.0000000000
N          N       0.89345  -0.33157  -0.08288   0.0000000000
S          S       0.84308  -0.34464  -0.00745   0.0000000000
N          N       0.79197  -0.28177  -0.07578   0.0000000000
C          C       1.23485  -1.38117   0.23729   0.0000000000
C          C       1.14639  -1.38072   0.23975   0.0000000000
C          C       1.23387  -1.46813   0.23796   0.0000000000
N          N       1.26208  -1.43844   0.23823   0.0000000000
N          N       1.17598  -1.43801   0.23802   0.0000000000
N          N       1.17703  -1.35353   0.23858   0.0000000000
C          C       1.26525  -1.35118   0.23518   0.0000000000
C          C       1.08602  -1.35031   0.24467   0.0000000000
C          C       1.26360  -1.52801   0.23818   0.0000000000
C          C       1.32271  -1.37677   0.28515   0.0000000000
C          C       1.05337  -1.37544   0.19808   0.0000000000
C          C       1.23574  -1.55910   0.20247   0.0000000000
C          C       1.32248  -1.55931   0.27439   0.0000000000
C          C       1.05594  -1.29358   0.29809   0.0000000000
C          C       1.23929  -1.29434   0.18303   0.0000000000
C          C       1.26933  -1.26432   0.18154   0.0000000000
C          C       0.99594  -1.26346   0.30603   0.0000000000
C          C       1.35209  -1.61877   0.27476   0.0000000000
C          C       1.26532  -1.61859   0.20237   0.0000000000
C          C       0.99332  -1.34526   0.20525   0.0000000000
C          C       1.35272  -1.34670   0.28448   0.0000000000
C          C       1.50885  -1.10644   0.25596   0.0000000000
C          C       0.59756  -1.10710   0.27452   0.0000000000
C          C       1.45995  -1.08853   0.16020   0.0000000000
C          C       0.62907  -1.08945   0.36895   0.0000000000
C          C       1.42880  -1.11746   0.15546   0.0000000000
C          C       0.68920  -1.11833   0.37122   0.0000000000
C          C       1.44751  -1.16819   0.24037   0.0000000000
C          C       0.72076  -1.16870   0.28440   0.0000000000
C          C       1.49727  -1.18842   0.33141   0.0000000000
C          C       0.69064  -1.18925   0.19731   0.0000000000
C          C       1.52618  -1.15745   0.34077   0.0000000000
C          C       0.63073  -1.15834   0.19032   0.0000000000
H          H       1.44630  -1.05336   0.09227   0.0000000000
H          H       0.60781  -1.05430   0.43693   0.0000000000
H          H       1.39271  -1.10160   0.08835   0.0000000000
H          H       0.70971  -1.10269   0.43786   0.0000000000
H          H       1.51234  -1.22532   0.39363   0.0000000000
H          H       0.71213  -1.22651   0.13638   0.0000000000
H          H       1.56087  -1.17294   0.41148   0.0000000000
H          H       0.61121  -1.17402   0.12158   0.0000000000
C          C       1.45172  -0.98427   0.31465   0.0000000000
C          C       0.53446  -0.98562   0.20882   0.0000000000
C          C       1.42130  -0.92485   0.30350   0.0000000000
C          C       0.50574  -0.92615   0.21025   0.0000000000
H          H       1.43026  -1.00317   0.35992   0.0000000000
H          H       0.57545  -1.00543   0.16845   0.0000000000
H          H       1.37917  -0.90561   0.33426   0.0000000000
H          H       0.52964  -0.90792   0.18096   0.0000000000
C          C       1.41733  -1.19806   0.23627   0.0000000000
C          C       0.78086  -1.19787   0.28230   0.0000000000
C          C       1.36261  -1.17570   0.30601   0.0000000000
C          C       0.81137  -1.17362   0.21082   0.0000000000
C          C       1.33319  -1.20576   0.30579   0.0000000000
C          C       0.87154  -1.20363   0.20332   0.0000000000
C          C       1.35643  -1.25957   0.23387   0.0000000000
C          C       0.90330  -1.25857   0.26881   0.0000000000
C          C       1.41135  -1.28216   0.16333   0.0000000000
C          C       0.87214  -1.28160   0.34319   0.0000000000
C          C       1.44147  -1.25210   0.16536   0.0000000000
C          C       0.81267  -1.25230   0.34872   0.0000000000
H          H       0.78988  -0.13408   0.16191   0.0000000000
H          H       0.89212  -0.18515   0.14791   0.0000000000
H          H       1.42981  -1.32082   0.10890   0.0000000000
H          H       1.48121  -1.26988   0.11415   0.0000000000
C          C       0.43488  -0.79981   0.15300   0.0000000000
C          C       1.36480  -0.79957   0.33106   0.0000000000
C          C       0.40521  -0.74070   0.15202   0.0000000000
C          C       1.33390  -0.74004   0.32664   0.0000000000
H          H       1.34856  -0.81827   0.40375   0.0000000000
H          H       1.29702  -0.71917   0.39211   0.0000000000
N          N       0.53834  -1.07669   0.26510   0.0000000000
C          C       0.50922  -1.01768   0.26303   0.0000000000
C          C       0.44717  -0.89299   0.25174   0.0000000000
C          C       0.41657  -0.83235   0.24401   0.0000000000
C          C       0.35391  -0.70916   0.23809   0.0000000000
H          H       1.34319  -1.41772   0.32416   0.0000000000
H          H       1.07317  -1.41619   0.15758   0.0000000000
H          H       1.19329  -1.53850   0.17506   0.0000000000
H          H       1.34455  -1.53894   0.30195   0.0000000000
H          H       1.07767  -1.27367   0.33361   0.0000000000
H          H       1.19801  -1.27418   0.14445   0.0000000000
C          C       1.32646  -1.28991   0.23309   0.0000000000
C          C       0.96358  -1.28882   0.26003   0.0000000000
C          C       1.32405  -1.64942   0.23820   0.0000000000
H          H       1.39394  -1.36656   0.32347   0.0000000000
H          H       0.97130  -1.36490   0.16945   0.0000000000
H          H       1.24912  -1.22339   0.14182   0.0000000000
H          H       0.97602  -1.22282   0.34736   0.0000000000
H          H       1.24362  -1.63932   0.17467   0.0000000000
H          H       1.39455  -1.63976   0.30291   0.0000000000
N          N       0.48061  -0.81829   0.05683   0.0000000000
S          S       0.49148  -0.76802  -0.02571   0.0000000000
N          N       0.43067  -0.71907   0.06061   0.0000000000
N          N       0.33320  -0.12616   0.38148   0.0000000000
S          S       0.26999  -0.11467   0.45464   0.0000000000
N          N       0.28308  -0.17759   0.38278   0.0000000000
N          N       0.89345  -0.33157   0.41713   0.0000000000
S          S       0.84308  -0.34464   0.49256   0.0000000000
N          N       0.79197  -0.28177   0.42422   0.0000000000
