data_crystal
 
_cell_length_a    52.56300
_cell_length_b    52.55200
_cell_length_c    7.20000
_cell_angle_alpha 90.00000
_cell_angle_beta  90.00000
_cell_angle_gamma 119.97360
 
_symmetry_space_group_name_Hall 'P 1'
_symmetry_space_group_name_H-M  'P 1'
 
loop_
_symmetry_equiv_pos_as_xyz
 'x,y,z' 
 
loop_
_atom_site_label
_atom_site_type_symbol
_atom_site_fract_x
_atom_site_fract_y
_atom_site_fract_z
_atom_site_charge
C          C       0.52720   0.49992   0.69742   0.0000000000
C          C       0.52718   0.52727   0.70041   0.0000000000
C          C       0.55473   0.55401   0.70322   0.0000000000
C          C       0.58072   0.55330   0.70325   0.0000000000
C          C       0.58073   0.52741   0.69900   0.0000000000
C          C       0.55476   0.50073   0.69523   0.0000000000
O          O       0.60874   0.53110   0.69691   0.0000000000
B          B       0.62638   0.56319   0.70073   0.0000000000
O          O       0.60872   0.57763   0.70456   0.0000000000
C          C       0.50008   0.47279   0.69558   0.0000000000
C          C       0.47275   0.47280   0.68846   0.0000000000
C          C       0.49926   0.44523   0.70178   0.0000000000
C          C       0.47258   0.41925   0.69790   0.0000000000
C          C       0.44672   0.41926   0.68976   0.0000000000
C          C       0.44601   0.44524   0.68578   0.0000000000
O          O       0.42239   0.39125   0.68901   0.0000000000
B          B       0.43681   0.37359   0.69766   0.0000000000
O          O       0.46889   0.39124   0.70365   0.0000000000
C          C       0.50005   0.52726   0.69788   0.0000000000
C          C       0.47276   0.49995   0.68693   0.0000000000
C          C       0.44607   0.50081   0.67571   0.0000000000
C          C       0.44674   0.52748   0.68066   0.0000000000
C          C       0.47252   0.55330   0.69609   0.0000000000
C          C       0.49917   0.55397   0.70496   0.0000000000
O          O       0.46880   0.57760   0.70024   0.0000000000
B          B       0.43680   0.56323   0.68495   0.0000000000
O          O       0.42245   0.53120   0.67230   0.0000000000
H          H       0.55712   0.57555   0.70327   0.0000000000
H          H       0.55715   0.48160   0.68833   0.0000000000
H          H       0.51836   0.44285   0.71192   0.0000000000
H          H       0.42448   0.44286   0.68285   0.0000000000
H          H       0.42464   0.48173   0.66229   0.0000000000
H          H       0.51822   0.57543   0.71801   0.0000000000
C          C       0.13942   0.83343   0.70190   0.0000000000
C          C       0.13944   0.80609   0.69591   0.0000000000
C          C       0.11189   0.77934   0.69447   0.0000000000
C          C       0.08590   0.78004   0.69900   0.0000000000
C          C       0.08589   0.80592   0.70325   0.0000000000
C          C       0.11186   0.83262   0.70397   0.0000000000
O          O       0.05788   0.80224   0.70455   0.0000000000
B          B       0.04024   0.77015   0.70073   0.0000000000
O          O       0.05790   0.75571   0.69691   0.0000000000
C          C       0.16654   0.86055   0.70451   0.0000000000
C          C       0.19387   0.86060   0.69292   0.0000000000
C          C       0.16736   0.88805   0.71963   0.0000000000
C          C       0.19404   0.91404   0.71988   0.0000000000
C          C       0.21991   0.91410   0.70751   0.0000000000
C          C       0.22061   0.88816   0.69489   0.0000000000
O          O       0.24423   0.94209   0.71196   0.0000000000
B          B       0.22981   0.95967   0.72876   0.0000000000
O          O       0.19773   0.94199   0.73421   0.0000000000
C          C       0.16657   0.80612   0.68893   0.0000000000
C          C       0.19387   0.83349   0.68248   0.0000000000
C          C       0.22055   0.83271   0.66661   0.0000000000
C          C       0.21988   0.80604   0.66292   0.0000000000
C          C       0.19410   0.78014   0.67409   0.0000000000
C          C       0.16745   0.77940   0.68710   0.0000000000
O          O       0.19783   0.75583   0.66965   0.0000000000
B          B       0.22982   0.77030   0.65383   0.0000000000
O          O       0.24417   0.80238   0.64936   0.0000000000
H          H       0.10950   0.75782   0.68785   0.0000000000
H          H       0.10947   0.85177   0.70374   0.0000000000
H          H       0.14826   0.89035   0.73366   0.0000000000
H          H       0.24214   0.89057   0.68921   0.0000000000
H          H       0.24198   0.85186   0.65595   0.0000000000
H          H       0.14840   0.75787   0.69622   0.0000000000
C          C       0.84890   0.67446   0.70073   0.0000000000
C          C       0.84887   0.71989   0.70819   0.0000000000
C          C       0.84892   0.62904   0.69327   0.0000000000
C          C       0.86443   0.70495   0.70446   0.0000000000
C          C       0.89539   0.72043   0.70446   0.0000000000
C          C       0.86445   0.65952   0.69701   0.0000000000
C          C       0.89541   0.67501   0.69701   0.0000000000
C          C       0.94377   0.72191   0.70073   0.0000000000
C          C       0.96036   0.75292   0.70446   0.0000000000
C          C       0.99116   0.76832   0.70446   0.0000000000
C          C       0.96039   0.70750   0.69701   0.0000000000
C          C       0.99118   0.72290   0.69700   0.0000000000
C          C       0.00711   0.75358   0.70073   0.0000000000
O          O       0.90842   0.74789   0.70790   0.0000000000
O          O       0.90847   0.66059   0.69357   0.0000000000
N          N       0.91115   0.70560   0.70073   0.0000000000
H          H       0.86080   0.74376   0.71113   0.0000000000
H          H       0.94927   0.76569   0.70747   0.0000000000
H          H       0.00309   0.79220   0.70740   0.0000000000
H          H       0.86086   0.61710   0.69034   0.0000000000
H          H       0.94931   0.68365   0.69400   0.0000000000
H          H       0.00313   0.71096   0.69407   0.0000000000
C          C       0.81772   0.65887   0.70073   0.0000000000
C          C       0.81775   0.61345   0.69327   0.0000000000
C          C       0.81770   0.70430   0.70819   0.0000000000
C          C       0.80220   0.62839   0.69701   0.0000000000
C          C       0.77123   0.61291   0.69701   0.0000000000
C          C       0.80217   0.67381   0.70446   0.0000000000
C          C       0.77121   0.65833   0.70446   0.0000000000
C          C       0.72285   0.61143   0.70073   0.0000000000
C          C       0.70626   0.58042   0.69701   0.0000000000
C          C       0.67546   0.56502   0.69701   0.0000000000
C          C       0.70623   0.62584   0.70447   0.0000000000
C          C       0.67544   0.61044   0.70447   0.0000000000
C          C       0.65951   0.57976   0.70073   0.0000000000
O          O       0.75820   0.58545   0.69357   0.0000000000
O          O       0.75815   0.67275   0.70790   0.0000000000
N          N       0.75547   0.62774   0.70073   0.0000000000
H          H       0.80582   0.58958   0.69034   0.0000000000
H          H       0.71735   0.56765   0.69400   0.0000000000
H          H       0.66353   0.54114   0.69407   0.0000000000
H          H       0.80576   0.71624   0.71113   0.0000000000
H          H       0.71731   0.64969   0.70747   0.0000000000
H          H       0.66349   0.62237   0.70740   0.0000000000
C          C       0.32552   0.67456   0.66822   0.0000000000
C          C       0.28027   0.62926   0.64094   0.0000000000
C          C       0.37076   0.71986   0.69549   0.0000000000
C          C       0.29512   0.65969   0.65341   0.0000000000
C          C       0.27964   0.67518   0.65109   0.0000000000
C          C       0.34036   0.70499   0.68068   0.0000000000
C          C       0.32488   0.72048   0.67836   0.0000000000
C          C       0.27807   0.72203   0.66109   0.0000000000
C          C       0.24715   0.70769   0.64620   0.0000000000
C          C       0.23174   0.72310   0.64389   0.0000000000
C          C       0.29239   0.75299   0.67347   0.0000000000
C          C       0.27698   0.76840   0.67115   0.0000000000
C          C       0.24639   0.75372   0.65632   0.0000000000
O          O       0.25226   0.66083   0.63753   0.0000000000
O          O       0.33921   0.74789   0.68995   0.0000000000
N          N       0.29438   0.70571   0.66354   0.0000000000
H          H       0.25647   0.61738   0.62930   0.0000000000
H          H       0.23445   0.68389   0.63604   0.0000000000
H          H       0.20794   0.71122   0.63223   0.0000000000
H          H       0.38262   0.74369   0.70535   0.0000000000
H          H       0.31617   0.76570   0.68530   0.0000000000
H          H       0.28885   0.79222   0.68101   0.0000000000
C          C       0.34111   0.65897   0.67056   0.0000000000
C          C       0.38635   0.70427   0.69783   0.0000000000
C          C       0.29586   0.61367   0.64328   0.0000000000
C          C       0.37150   0.67384   0.68537   0.0000000000
C          C       0.38698   0.65835   0.68769   0.0000000000
C          C       0.32626   0.62854   0.65809   0.0000000000
C          C       0.34174   0.61305   0.66042   0.0000000000
C          C       0.38855   0.61150   0.67769   0.0000000000
C          C       0.41948   0.62584   0.69258   0.0000000000
C          C       0.43488   0.61043   0.69489   0.0000000000
C          C       0.37424   0.58054   0.66531   0.0000000000
C          C       0.38964   0.56513   0.66762   0.0000000000
C          C       0.42023   0.57981   0.68246   0.0000000000
O          O       0.41436   0.67270   0.70125   0.0000000000
O          O       0.32741   0.58564   0.64883   0.0000000000
N          N       0.37224   0.62782   0.67524   0.0000000000
H          H       0.41015   0.71615   0.70948   0.0000000000
H          H       0.43217   0.64965   0.70273   0.0000000000
H          H       0.45868   0.62231   0.70654   0.0000000000
H          H       0.28400   0.58984   0.63343   0.0000000000
H          H       0.35046   0.56783   0.65348   0.0000000000
H          H       0.37777   0.54131   0.65777   0.0000000000
C          C       0.32552   0.15104   0.71438   0.0000000000
C          C       0.37091   0.15103   0.72866   0.0000000000
C          C       0.28012   0.15105   0.70009   0.0000000000
C          C       0.34044   0.13549   0.72269   0.0000000000
C          C       0.32495   0.10453   0.72501   0.0000000000
C          C       0.29505   0.13550   0.70840   0.0000000000
C          C       0.27956   0.10454   0.71073   0.0000000000
C          C       0.27806   0.05615   0.72150   0.0000000000
C          C       0.29245   0.03954   0.72990   0.0000000000
C          C       0.27705   0.00874   0.73221   0.0000000000
C          C       0.24706   0.03955   0.71561   0.0000000000
C          C       0.23166   0.00875   0.71793   0.0000000000
C          C       0.24638   0.99281   0.72627   0.0000000000
O          O       0.33935   0.09148   0.73258   0.0000000000
O          O       0.25211   0.09149   0.70512   0.0000000000
N          N       0.29438   0.08878   0.71906   0.0000000000
H          H       0.38283   0.13909   0.73519   0.0000000000
H          H       0.31629   0.05063   0.73482   0.0000000000
H          H       0.28897   0.99680   0.73874   0.0000000000
H          H       0.25626   0.13912   0.69536   0.0000000000
H          H       0.23431   0.05064   0.70902   0.0000000000
H          H       0.20780   0.99682   0.71319   0.0000000000
C          C       0.34111   0.18222   0.71203   0.0000000000
C          C       0.29571   0.18223   0.69775   0.0000000000
C          C       0.38650   0.18221   0.72632   0.0000000000
C          C       0.32619   0.19777   0.70372   0.0000000000
C          C       0.34167   0.22873   0.70139   0.0000000000
C          C       0.37157   0.19776   0.71801   0.0000000000
C          C       0.38706   0.22872   0.71568   0.0000000000
C          C       0.38856   0.27711   0.70491   0.0000000000
C          C       0.37417   0.29372   0.69652   0.0000000000
C          C       0.38957   0.32452   0.69420   0.0000000000
C          C       0.41956   0.29371   0.71080   0.0000000000
C          C       0.43496   0.32451   0.70849   0.0000000000
C          C       0.42024   0.34045   0.70015   0.0000000000
O          O       0.32727   0.24179   0.69383   0.0000000000
O          O       0.41451   0.24177   0.72129   0.0000000000
N          N       0.37225   0.24448   0.70736   0.0000000000
H          H       0.28379   0.19417   0.69122   0.0000000000
H          H       0.35033   0.28264   0.69159   0.0000000000
H          H       0.37765   0.33646   0.68767   0.0000000000
H          H       0.41036   0.19414   0.73106   0.0000000000
H          H       0.43231   0.28262   0.71739   0.0000000000
H          H       0.45882   0.33644   0.71322   0.0000000000
C          C       0.52720   0.49992   1.19741   0.0000000000
C          C       0.52718   0.52727   1.20041   0.0000000000
C          C       0.55473   0.55401   1.20322   0.0000000000
C          C       0.58072   0.55330   1.20325   0.0000000000
C          C       0.58073   0.52741   1.19900   0.0000000000
C          C       0.55476   0.50073   1.19522   0.0000000000
O          O       0.60874   0.53110   1.19691   0.0000000000
B          B       0.62638   0.56319   1.20073   0.0000000000
O          O       0.60872   0.57763   1.20456   0.0000000000
C          C       0.50008   0.47279   1.19558   0.0000000000
C          C       0.47275   0.47280   1.18847   0.0000000000
C          C       0.49926   0.44523   1.20178   0.0000000000
C          C       0.47258   0.41925   1.19790   0.0000000000
C          C       0.44672   0.41926   1.18976   0.0000000000
C          C       0.44601   0.44524   1.18578   0.0000000000
O          O       0.42239   0.39125   1.18901   0.0000000000
B          B       0.43681   0.37359   1.19765   0.0000000000
O          O       0.46889   0.39124   1.20365   0.0000000000
C          C       0.50005   0.52726   1.19788   0.0000000000
C          C       0.47276   0.49995   1.18693   0.0000000000
C          C       0.44607   0.50081   1.17571   0.0000000000
C          C       0.44674   0.52748   1.18066   0.0000000000
C          C       0.47252   0.55330   1.19609   0.0000000000
C          C       0.49917   0.55397   1.20496   0.0000000000
O          O       0.46880   0.57760   1.20024   0.0000000000
B          B       0.43680   0.56323   1.18494   0.0000000000
O          O       0.42245   0.53120   1.17230   0.0000000000
H          H       0.55712   0.57555   1.20328   0.0000000000
H          H       0.55715   0.48160   1.18833   0.0000000000
H          H       0.51836   0.44285   1.21192   0.0000000000
H          H       0.42448   0.44286   1.18285   0.0000000000
H          H       0.42464   0.48173   1.16229   0.0000000000
H          H       0.51822   0.57543   1.21801   0.0000000000
C          C       0.13942   0.83343   1.20190   0.0000000000
C          C       0.13944   0.80609   1.19592   0.0000000000
C          C       0.11189   0.77934   1.19447   0.0000000000
C          C       0.08590   0.78004   1.19900   0.0000000000
C          C       0.08589   0.80592   1.20325   0.0000000000
C          C       0.11186   0.83262   1.20396   0.0000000000
O          O       0.05788   0.80224   1.20455   0.0000000000
B          B       0.04024   0.77015   1.20073   0.0000000000
O          O       0.05790   0.75571   1.19691   0.0000000000
C          C       0.16654   0.86055   1.20451   0.0000000000
C          C       0.19387   0.86060   1.19292   0.0000000000
C          C       0.16736   0.88805   1.21962   0.0000000000
C          C       0.19404   0.91404   1.21989   0.0000000000
C          C       0.21991   0.91410   1.20751   0.0000000000
C          C       0.22061   0.88816   1.19489   0.0000000000
O          O       0.24423   0.94209   1.21196   0.0000000000
B          B       0.22981   0.95967   1.22876   0.0000000000
O          O       0.19773   0.94199   1.23421   0.0000000000
C          C       0.16657   0.80612   1.18893   0.0000000000
C          C       0.19387   0.83349   1.18248   0.0000000000
C          C       0.22055   0.83271   1.16661   0.0000000000
C          C       0.21988   0.80604   1.16292   0.0000000000
C          C       0.19410   0.78014   1.17409   0.0000000000
C          C       0.16745   0.77940   1.18710   0.0000000000
O          O       0.19783   0.75583   1.16965   0.0000000000
B          B       0.22982   0.77030   1.15383   0.0000000000
O          O       0.24417   0.80238   1.14936   0.0000000000
H          H       0.10950   0.75782   1.18785   0.0000000000
H          H       0.10947   0.85177   1.20375   0.0000000000
H          H       0.14826   0.89035   1.23366   0.0000000000
H          H       0.24214   0.89057   1.18921   0.0000000000
H          H       0.24198   0.85186   1.15595   0.0000000000
H          H       0.14840   0.75787   1.19622   0.0000000000
C          C       0.84890   0.67446   1.20073   0.0000000000
C          C       0.84887   0.71989   1.20819   0.0000000000
C          C       0.84892   0.62904   1.19328   0.0000000000
C          C       0.86443   0.70495   1.20446   0.0000000000
C          C       0.89539   0.72043   1.20446   0.0000000000
C          C       0.86445   0.65952   1.19701   0.0000000000
C          C       0.89541   0.67501   1.19701   0.0000000000
C          C       0.94377   0.72191   1.20073   0.0000000000
C          C       0.96036   0.75292   1.20446   0.0000000000
C          C       0.99116   0.76832   1.20446   0.0000000000
C          C       0.96039   0.70750   1.19701   0.0000000000
C          C       0.99118   0.72290   1.19700   0.0000000000
C          C       0.00711   0.75358   1.20073   0.0000000000
O          O       0.90842   0.74789   1.20790   0.0000000000
O          O       0.90847   0.66059   1.19357   0.0000000000
N          N       0.91115   0.70560   1.20073   0.0000000000
H          H       0.86080   0.74376   1.21113   0.0000000000
H          H       0.94927   0.76569   1.20747   0.0000000000
H          H       0.00309   0.79220   1.20740   0.0000000000
H          H       0.86086   0.61710   1.19034   0.0000000000
H          H       0.94931   0.68365   1.19400   0.0000000000
H          H       0.00313   0.71096   1.19406   0.0000000000
C          C       0.81772   0.65887   1.20073   0.0000000000
C          C       0.81775   0.61345   1.19328   0.0000000000
C          C       0.81770   0.70430   1.20819   0.0000000000
C          C       0.80220   0.62839   1.19701   0.0000000000
C          C       0.77123   0.61291   1.19701   0.0000000000
C          C       0.80217   0.67381   1.20446   0.0000000000
C          C       0.77121   0.65833   1.20446   0.0000000000
C          C       0.72285   0.61143   1.20073   0.0000000000
C          C       0.70626   0.58042   1.19701   0.0000000000
C          C       0.67546   0.56502   1.19701   0.0000000000
C          C       0.70623   0.62584   1.20447   0.0000000000
C          C       0.67544   0.61044   1.20447   0.0000000000
C          C       0.65951   0.57976   1.20073   0.0000000000
O          O       0.75820   0.58545   1.19357   0.0000000000
O          O       0.75815   0.67275   1.20790   0.0000000000
N          N       0.75547   0.62774   1.20073   0.0000000000
H          H       0.80582   0.58958   1.19034   0.0000000000
H          H       0.71735   0.56765   1.19400   0.0000000000
H          H       0.66353   0.54114   1.19406   0.0000000000
H          H       0.80576   0.71624   1.21113   0.0000000000
H          H       0.71731   0.64969   1.20747   0.0000000000
H          H       0.66349   0.62237   1.20741   0.0000000000
C          C       0.32552   0.67456   1.16822   0.0000000000
C          C       0.28027   0.62926   1.14094   0.0000000000
C          C       0.37076   0.71986   1.19549   0.0000000000
C          C       0.29512   0.65969   1.15341   0.0000000000
C          C       0.27964   0.67518   1.15109   0.0000000000
C          C       0.34036   0.70499   1.18069   0.0000000000
C          C       0.32488   0.72048   1.17836   0.0000000000
C          C       0.27807   0.72203   1.16108   0.0000000000
C          C       0.24715   0.70769   1.14620   0.0000000000
C          C       0.23174   0.72310   1.14389   0.0000000000
C          C       0.29239   0.75299   1.17347   0.0000000000
C          C       0.27698   0.76840   1.17116   0.0000000000
C          C       0.24639   0.75372   1.15632   0.0000000000
O          O       0.25226   0.66083   1.13753   0.0000000000
O          O       0.33921   0.74789   1.18995   0.0000000000
N          N       0.29438   0.70571   1.16353   0.0000000000
H          H       0.25647   0.61738   1.12930   0.0000000000
H          H       0.23445   0.68389   1.13604   0.0000000000
H          H       0.20794   0.71122   1.13224   0.0000000000
H          H       0.38262   0.74369   1.20535   0.0000000000
H          H       0.31617   0.76570   1.18530   0.0000000000
H          H       0.28885   0.79222   1.18101   0.0000000000
C          C       0.34111   0.65897   1.17056   0.0000000000
C          C       0.38635   0.70427   1.19783   0.0000000000
C          C       0.29586   0.61367   1.14329   0.0000000000
C          C       0.37150   0.67384   1.18537   0.0000000000
C          C       0.38698   0.65835   1.18769   0.0000000000
C          C       0.32626   0.62854   1.15809   0.0000000000
C          C       0.34174   0.61305   1.16042   0.0000000000
C          C       0.38855   0.61150   1.17769   0.0000000000
C          C       0.41948   0.62584   1.19258   0.0000000000
C          C       0.43488   0.61043   1.19489   0.0000000000
C          C       0.37424   0.58054   1.16531   0.0000000000
C          C       0.38964   0.56513   1.16762   0.0000000000
C          C       0.42023   0.57981   1.18246   0.0000000000
O          O       0.41436   0.67270   1.20124   0.0000000000
O          O       0.32741   0.58564   1.14882   0.0000000000
N          N       0.37224   0.62782   1.17524   0.0000000000
H          H       0.41015   0.71615   1.20948   0.0000000000
H          H       0.43217   0.64965   1.20274   0.0000000000
H          H       0.45868   0.62231   1.20654   0.0000000000
H          H       0.28400   0.58984   1.13343   0.0000000000
H          H       0.35046   0.56783   1.15348   0.0000000000
H          H       0.37777   0.54131   1.15776   0.0000000000
C          C       0.32552   0.15104   1.21438   0.0000000000
C          C       0.37091   0.15103   1.22866   0.0000000000
C          C       0.28012   0.15105   1.20009   0.0000000000
C          C       0.34044   0.13549   1.22269   0.0000000000
C          C       0.32495   0.10453   1.22501   0.0000000000
C          C       0.29505   0.13550   1.20840   0.0000000000
C          C       0.27956   0.10454   1.21073   0.0000000000
C          C       0.27806   0.05615   1.22151   0.0000000000
C          C       0.29245   0.03954   1.22990   0.0000000000
C          C       0.27705   0.00874   1.23221   0.0000000000
C          C       0.24706   0.03955   1.21561   0.0000000000
C          C       0.23166   0.00875   1.21792   0.0000000000
C          C       0.24638   0.99281   1.22626   0.0000000000
O          O       0.33935   0.09148   1.23258   0.0000000000
O          O       0.25211   0.09149   1.20512   0.0000000000
N          N       0.29438   0.08878   1.21905   0.0000000000
H          H       0.38283   0.13909   1.23519   0.0000000000
H          H       0.31629   0.05063   1.23482   0.0000000000
H          H       0.28897   0.99680   1.23873   0.0000000000
H          H       0.25626   0.13912   1.19535   0.0000000000
H          H       0.23431   0.05064   1.20902   0.0000000000
H          H       0.20780   0.99682   1.21319   0.0000000000
C          C       0.34111   0.18222   1.21203   0.0000000000
C          C       0.29571   0.18223   1.19775   0.0000000000
C          C       0.38650   0.18221   1.22632   0.0000000000
C          C       0.32619   0.19777   1.20372   0.0000000000
C          C       0.34167   0.22873   1.20139   0.0000000000
C          C       0.37157   0.19776   1.21801   0.0000000000
C          C       0.38706   0.22872   1.21568   0.0000000000
C          C       0.38856   0.27711   1.20491   0.0000000000
C          C       0.37417   0.29372   1.19651   0.0000000000
C          C       0.38957   0.32452   1.19420   0.0000000000
C          C       0.41956   0.29371   1.21080   0.0000000000
C          C       0.43496   0.32451   1.20849   0.0000000000
C          C       0.42024   0.34045   1.20015   0.0000000000
O          O       0.32727   0.24179   1.19383   0.0000000000
O          O       0.41451   0.24177   1.22129   0.0000000000
N          N       0.37225   0.24448   1.20736   0.0000000000
H          H       0.28379   0.19417   1.19122   0.0000000000
H          H       0.35033   0.28264   1.19158   0.0000000000
H          H       0.37765   0.33646   1.18767   0.0000000000
H          H       0.41036   0.19414   1.23106   0.0000000000
H          H       0.43231   0.28262   1.21739   0.0000000000
H          H       0.45882   0.33644   1.21322   0.0000000000
