data_crystal

_cell_length_a    15.77030
_cell_length_b    15.77030
_cell_length_c    7.07170
_cell_angle_alpha 90.00000
_cell_angle_beta  90.00000
_cell_angle_gamma 90.00000

_space_group_name_Hall 'P 1'
_space_group_name_H-M_alt  'P 1'

loop_
_symmetry_equiv_pos_as_xyz
'x,y,z' 

loop_
_atom_site_label
_atom_site_type_symbol
_atom_site_fract_x
_atom_site_fract_y
_atom_site_fract_z
H          H       0.78480   0.78700   0.08140 
C          C       0.80870   0.69472   0.87690 
C          C       0.86245   0.75327   0.74960 
H          H       0.89840   0.79020   0.82960 
H          H       0.90020   0.71840   0.66920 
C          C       0.86363   0.64120   0.00960 
C          C       0.95172   0.64814   0.01840 
H          H       0.98010   0.68500   0.93300 
C          C       0.99880   0.60261   0.14870 
H          H       0.05890   0.60660   0.14840 
C          C       0.95822   0.55107   0.28000 
C          C       0.87062   0.54087   0.27270 
H          H       0.84250   0.50430   0.35900 
C          C       0.82515   0.58511   0.13690 
H          H       0.76550   0.57700   0.13000 
N          N       0.01227   0.50620   0.41300 
O          O       0.08391   0.48190   0.35230 
H          H       0.71520   0.71300   0.08140 
C          C       0.69130   0.80528   0.87690 
C          C       0.63755   0.74673   0.74960 
H          H       0.60160   0.70980   0.82960 
H          H       0.59980   0.78160   0.66920 
C          C       0.63637   0.85880   0.00960 
C          C       0.54828   0.85186   0.01840 
H          H       0.51990   0.81500   0.93300 
C          C       0.50120   0.89739   0.14870 
H          H       0.44110   0.89340   0.14840 
C          C       0.54178   0.94893   0.28000 
C          C       0.62938   0.95913   0.27270 
H          H       0.65750   0.99570   0.35900 
C          C       0.67485   0.91489   0.13690 
H          H       0.73450   0.92300   0.13000 
N          N       0.48773   0.99380   0.41300 
O          O       0.41609   0.01810   0.35230 
H          H       0.21300   0.28480   0.58140 
C          C       0.30528   0.30870   0.37690 
C          C       0.24673   0.36245   0.24960 
H          H       0.20980   0.39840   0.32960 
H          H       0.28160   0.40020   0.16920 
C          C       0.35880   0.36363   0.50960 
C          C       0.35186   0.45172   0.51840 
H          H       0.31500   0.48010   0.43300 
C          C       0.39739   0.49880   0.64870 
H          H       0.39340   0.55890   0.64840 
C          C       0.44893   0.45822   0.78000 
C          C       0.45913   0.37062   0.77270 
H          H       0.49570   0.34250   0.85900 
C          C       0.41489   0.32515   0.63690 
H          H       0.42300   0.26550   0.63000 
N          N       0.49380   0.51227   0.91300 
O          O       0.51810   0.58391   0.85230 
H          H       0.28700   0.21520   0.58140 
C          C       0.19472   0.19130   0.37690 
C          C       0.25327   0.13755   0.24960 
H          H       0.29020   0.10160   0.32960 
H          H       0.21840   0.09980   0.16920 
C          C       0.14120   0.13637   0.50960 
C          C       0.14814   0.04828   0.51840 
H          H       0.18500   0.01990   0.43300 
C          C       0.10261   0.00120   0.64870 
H          H       0.10660   0.94110   0.64840 
C          C       0.05107   0.04178   0.78000 
C          C       0.04087   0.12938   0.77270 
H          H       0.00430   0.15750   0.85900 
C          C       0.08511   0.17485   0.63690 
H          H       0.07700   0.23450   0.63000 
N          N       0.00620   0.98773   0.91300 
O          O       0.98190   0.91609   0.85230 
H          H       0.21520   0.21300   0.91860 
C          C       0.19130   0.30528   0.12310 
C          C       0.13755   0.24673   0.25040 
H          H       0.10160   0.20980   0.17040 
H          H       0.09980   0.28160   0.33080 
C          C       0.13637   0.35880   0.99040 
C          C       0.04828   0.35186   0.98160 
H          H       0.01990   0.31500   0.06700 
C          C       0.00120   0.39739   0.85130 
H          H       0.94110   0.39340   0.85160 
C          C       0.04178   0.44893   0.72000 
C          C       0.12938   0.45913   0.72730 
H          H       0.15750   0.49570   0.64100 
C          C       0.17485   0.41489   0.86310 
H          H       0.23450   0.42300   0.87000 
N          N       0.98773   0.49380   0.58700 
O          O       0.91609   0.51810   0.64770 
H          H       0.28480   0.28700   0.91860 
C          C       0.30870   0.19472   0.12310 
C          C       0.36245   0.25327   0.25040 
H          H       0.39840   0.29020   0.17040 
H          H       0.40020   0.21840   0.33080 
C          C       0.36363   0.14120   0.99040 
C          C       0.45172   0.14814   0.98160 
H          H       0.48010   0.18500   0.06700 
C          C       0.49880   0.10261   0.85130 
H          H       0.55890   0.10660   0.85160 
C          C       0.45822   0.05107   0.72000 
C          C       0.37062   0.04087   0.72730 
H          H       0.34250   0.00430   0.64100 
C          C       0.32515   0.08511   0.86310 
H          H       0.26550   0.07700   0.87000 
N          N       0.51227   0.00620   0.58700 
O          O       0.58391   0.98190   0.64770 
H          H       0.78700   0.71520   0.41860 
C          C       0.69472   0.69130   0.62310 
C          C       0.75327   0.63755   0.75040 
H          H       0.79020   0.60160   0.67040 
H          H       0.71840   0.59980   0.83080 
C          C       0.64120   0.63637   0.49040 
C          C       0.64814   0.54828   0.48160 
H          H       0.68500   0.51990   0.56700 
C          C       0.60261   0.50120   0.35130 
H          H       0.60660   0.44110   0.35160 
C          C       0.55107   0.54178   0.22000 
C          C       0.54087   0.62938   0.22730 
H          H       0.50430   0.65750   0.14100 
C          C       0.58511   0.67485   0.36310 
H          H       0.57700   0.73450   0.37000 
N          N       0.50620   0.48773   0.08700 
O          O       0.48190   0.41609   0.14770 
H          H       0.71300   0.78480   0.41860 
C          C       0.80528   0.80870   0.62310 
C          C       0.74673   0.86245   0.75040 
H          H       0.70980   0.89840   0.67040 
H          H       0.78160   0.90020   0.83080 
C          C       0.85880   0.86363   0.49040 
C          C       0.85186   0.95172   0.48160 
H          H       0.81500   0.98010   0.56700 
C          C       0.89739   0.99880   0.35130 
H          H       0.89340   0.05890   0.35160 
C          C       0.94893   0.95822   0.22000 
C          C       0.95913   0.87062   0.22730 
H          H       0.99570   0.84250   0.14100 
C          C       0.91489   0.82515   0.36310 
H          H       0.92300   0.76550   0.37000 
N          N       0.99380   0.01227   0.08700 
O          O       0.01810   0.08391   0.14770 
C          C       0.75000   0.75000   0.99900 
C          C       0.25000   0.25000   0.49900 
C          C       0.25000   0.25000   0.00100 
C          C       0.75000   0.75000   0.50100 
