data_ILCOF-1-AB
_audit_creation_date              0000-00-00
_audit_creation_method            'LanYouShi'
_symmetry_space_group_name_H-M    'P1'
_cell_length_a                    34.2434998
_cell_length_b                    34.6946983
_cell_length_c                    12.5394001
_cell_angle_alpha                 90.0000000
_cell_angle_beta                  90.0000000
_cell_angle_gamma                 90.0000000
loop_
_atom_site_label
_atom_site_type_symbol
_atom_site_fract_x
_atom_site_fract_y
_atom_site_fract_z
_atom_site_U_iso_or_equiv
_atom_site_adp_type
_atom_site_occupancy
        C1          C  0.4641200  0.4590800  0.4939700    0.00000       Uiso       1.00
        C2          C  0.4289600  0.5200500  0.4903600    0.00000       Uiso       1.00
        C3          C  0.4643800  0.5817301  0.4951100    0.00000       Uiso       1.00
        C4          C  0.4281400  0.6048701  0.5020600    0.00000       Uiso       1.00
        C5          C  0.4046200  0.6028600  0.5934700    0.00000       Uiso       1.00
        C6          C  0.3711500  0.6256900  0.6019000    0.00000       Uiso       1.00
        C7          C  0.3607700  0.6510000  0.5193100    0.00000       Uiso       1.00
        C8          C  0.3844500  0.6530400  0.4277800    0.00000       Uiso       1.00
        C9          C  0.4179900  0.6302500  0.4195500    0.00000       Uiso       1.00
       C10          C  0.3256900  0.6753700  0.5312800    0.00000       Uiso       1.00
       C11          C  0.7815300  0.7761800  0.4588700    0.00000       Uiso       1.00
       C12          C  0.7657500  0.7628300  0.3627900    0.00000       Uiso       1.00
       C13          C  0.7343200  0.7371001  0.5557200    0.00000       Uiso       1.00
        H1          H  0.4010000  0.5345100  0.4863400    0.00000       Uiso       1.00
        H2          H  0.4123800  0.5837901  0.6585100    0.00000       Uiso       1.00
        H3          H  0.3534800  0.6237600  0.6733500    0.00000       Uiso       1.00
        H4          H  0.3772800  0.6724300  0.3630000    0.00000       Uiso       1.00
        H5          H  0.4360800  0.6323701  0.3489100    0.00000       Uiso       1.00
        H6          H  0.3092500  0.6734201  0.6047800    0.00000       Uiso       1.00
        H7          H  0.7777601  0.7726600  0.2877200    0.00000       Uiso       1.00
        H8          H  0.7223700  0.7281501  0.6314800    0.00000       Uiso       1.00
        N1          N  0.3143600  0.6980301  0.4547700    0.00000       Uiso       1.00
       C14          C  0.4641200  0.9590801  0.9939700    0.00000       Uiso       1.00
       C15          C  0.4289600  0.0200500  0.9903600    0.00000       Uiso       1.00
       C16          C  0.4643800  0.0817300  0.9951100    0.00000       Uiso       1.00
       C17          C  0.4281400  0.1048700  1.0020601    0.00000       Uiso       1.00
       C18          C  0.4046200  0.1028600  1.0934700    0.00000       Uiso       1.00
       C19          C  0.3711500  0.1256900  1.1019000    0.00000       Uiso       1.00
       C20          C  0.3607700  0.1510000  1.0193100    0.00000       Uiso       1.00
       C21          C  0.3844500  0.1530400  0.9277800    0.00000       Uiso       1.00
       C22          C  0.4179900  0.1302500  0.9195500    0.00000       Uiso       1.00
       C23          C  0.3256900  0.1753700  1.0312799    0.00000       Uiso       1.00
       C24          C  0.7815300  0.2761801  0.9588699    0.00000       Uiso       1.00
       C25          C  0.7657500  0.2628300  0.8627900    0.00000       Uiso       1.00
       C26          C  0.7343200  0.2371000  1.0557200    0.00000       Uiso       1.00
        H9          H  0.4010000  0.0345100  0.9863400    0.00000       Uiso       1.00
       H10          H  0.4123800  0.0837900  1.1585100    0.00000       Uiso       1.00
       H11          H  0.3534800  0.1237600  1.1733500    0.00000       Uiso       1.00
       H12          H  0.3772800  0.1724300  0.8630000    0.00000       Uiso       1.00
       H13          H  0.4360800  0.1323700  0.8489100    0.00000       Uiso       1.00
       H14          H  0.3092500  0.1734200  1.1047800    0.00000       Uiso       1.00
       H15          H  0.7777601  0.2726600  0.7877200    0.00000       Uiso       1.00
       H16          H  0.7223700  0.2281500  1.1314800    0.00000       Uiso       1.00
        N2          N  0.3143600  0.1980300  0.9547700    0.00000       Uiso       1.00
       C27          C  0.9641200  0.4590800  0.9939700    0.00000       Uiso       1.00
       C28          C  0.9289600  0.5200500  0.9903600    0.00000       Uiso       1.00
       C29          C  0.9643800  0.5817301  0.9951100    0.00000       Uiso       1.00
       C30          C  0.9281400  0.6048701  1.0020601    0.00000       Uiso       1.00
       C31          C  0.9046200  0.6028600  1.0934700    0.00000       Uiso       1.00
       C32          C  0.8711500  0.6256900  1.1019000    0.00000       Uiso       1.00
       C33          C  0.8607700  0.6510000  1.0193100    0.00000       Uiso       1.00
       C34          C  0.8844500  0.6530400  0.9277800    0.00000       Uiso       1.00
       C35          C  0.9179900  0.6302500  0.9195500    0.00000       Uiso       1.00
       C36          C  0.8256900  0.6753700  1.0312799    0.00000       Uiso       1.00
       C37          C  0.2815300  0.7761800  0.9588699    0.00000       Uiso       1.00
       C38          C  0.2657500  0.7628300  0.8627900    0.00000       Uiso       1.00
       C39          C  0.2343200  0.7371001  1.0557200    0.00000       Uiso       1.00
       H17          H  0.9010000  0.5345100  0.9863400    0.00000       Uiso       1.00
       H18          H  0.9123800  0.5837901  1.1585100    0.00000       Uiso       1.00
       H19          H  0.8534800  0.6237600  1.1733500    0.00000       Uiso       1.00
       H20          H  0.8772800  0.6724300  0.8630000    0.00000       Uiso       1.00
       H21          H  0.9360800  0.6323701  0.8489100    0.00000       Uiso       1.00
       H22          H  0.8092500  0.6734201  1.1047800    0.00000       Uiso       1.00
       H23          H  0.2777600  0.7726600  0.7877200    0.00000       Uiso       1.00
       H24          H  0.2223700  0.7281501  1.1314800    0.00000       Uiso       1.00
        N3          N  0.8143600  0.6980301  0.9547700    0.00000       Uiso       1.00
       C40          C  0.9641200  0.9590801  0.4939700    0.00000       Uiso       1.00
       C41          C  0.9289600  0.0200500  0.4903600    0.00000       Uiso       1.00
       C42          C  0.9643800  0.0817300  0.4951100    0.00000       Uiso       1.00
       C43          C  0.9281400  0.1048700  0.5020600    0.00000       Uiso       1.00
       C44          C  0.9046200  0.1028600  0.5934700    0.00000       Uiso       1.00
       C45          C  0.8711500  0.1256900  0.6019000    0.00000       Uiso       1.00
       C46          C  0.8607700  0.1510000  0.5193100    0.00000       Uiso       1.00
       C47          C  0.8844500  0.1530400  0.4277800    0.00000       Uiso       1.00
       C48          C  0.9179900  0.1302500  0.4195500    0.00000       Uiso       1.00
       C49          C  0.8256900  0.1753700  0.5312800    0.00000       Uiso       1.00
       C50          C  0.2815300  0.2761801  0.4588700    0.00000       Uiso       1.00
       C51          C  0.2657500  0.2628300  0.3627900    0.00000       Uiso       1.00
       C52          C  0.2343200  0.2371000  0.5557200    0.00000       Uiso       1.00
       H25          H  0.9010000  0.0345100  0.4863400    0.00000       Uiso       1.00
       H26          H  0.9123800  0.0837900  0.6585100    0.00000       Uiso       1.00
       H27          H  0.8534800  0.1237600  0.6733500    0.00000       Uiso       1.00
       H28          H  0.8772800  0.1724300  0.3630000    0.00000       Uiso       1.00
       H29          H  0.9360800  0.1323700  0.3489100    0.00000       Uiso       1.00
       H30          H  0.8092500  0.1734200  0.6047800    0.00000       Uiso       1.00
       H31          H  0.2777600  0.2726600  0.2877200    0.00000       Uiso       1.00
       H32          H  0.2223700  0.2281500  0.6314800    0.00000       Uiso       1.00
        N4          N  0.8143600  0.1980300  0.4547700    0.00000       Uiso       1.00
       C53          C  0.5358800  0.5409200  0.4939700    0.00000       Uiso       1.00
       C54          C  0.5710400  0.4799500  0.4903600    0.00000       Uiso       1.00
       C55          C  0.5356200  0.4182700  0.4951100    0.00000       Uiso       1.00
       C56          C  0.5718600  0.3951300  0.5020600    0.00000       Uiso       1.00
       C57          C  0.5953800  0.3971401  0.5934700    0.00000       Uiso       1.00
       C58          C  0.6288500  0.3743100  0.6019000    0.00000       Uiso       1.00
       C59          C  0.6392300  0.3490000  0.5193100    0.00000       Uiso       1.00
       C60          C  0.6155500  0.3469600  0.4277800    0.00000       Uiso       1.00
       C61          C  0.5820100  0.3697501  0.4195500    0.00000       Uiso       1.00
       C62          C  0.6743100  0.3246301  0.5312800    0.00000       Uiso       1.00
       C63          C  0.2184700  0.2238200  0.4588700    0.00000       Uiso       1.00
       C64          C  0.2342500  0.2371700  0.3627900    0.00000       Uiso       1.00
       C65          C  0.2656800  0.2629000  0.5557200    0.00000       Uiso       1.00
       H33          H  0.5990000  0.4654900  0.4863400    0.00000       Uiso       1.00
       H34          H  0.5876200  0.4162100  0.6585100    0.00000       Uiso       1.00
       H35          H  0.6465200  0.3762400  0.6733500    0.00000       Uiso       1.00
       H36          H  0.6227200  0.3275700  0.3630000    0.00000       Uiso       1.00
       H37          H  0.5639200  0.3676300  0.3489100    0.00000       Uiso       1.00
       H38          H  0.6907500  0.3265800  0.6047800    0.00000       Uiso       1.00
       H39          H  0.2222400  0.2273400  0.2877200    0.00000       Uiso       1.00
       H40          H  0.2776300  0.2718500  0.6314800    0.00000       Uiso       1.00
        N5          N  0.6856400  0.3019700  0.4547700    0.00000       Uiso       1.00
       C66          C  0.5358800  0.0409200  0.9939700    0.00000       Uiso       1.00
       C67          C  0.5710400  0.9799501  0.9903600    0.00000       Uiso       1.00
       C68          C  0.5356200  0.9182701  0.9951100    0.00000       Uiso       1.00
       C69          C  0.5718600  0.8951300  1.0020601    0.00000       Uiso       1.00
       C70          C  0.5953800  0.8971400  1.0934700    0.00000       Uiso       1.00
       C71          C  0.6288500  0.8743101  1.1019000    0.00000       Uiso       1.00
       C72          C  0.6392300  0.8490000  1.0193100    0.00000       Uiso       1.00
       C73          C  0.6155500  0.8469601  0.9277800    0.00000       Uiso       1.00
       C74          C  0.5820100  0.8697501  0.9195500    0.00000       Uiso       1.00
       C75          C  0.6743100  0.8246300  1.0312799    0.00000       Uiso       1.00
       C76          C  0.2184700  0.7238200  0.9588699    0.00000       Uiso       1.00
       C77          C  0.2342500  0.7371700  0.8627900    0.00000       Uiso       1.00
       C78          C  0.2656800  0.7629000  1.0557200    0.00000       Uiso       1.00
       H41          H  0.5990000  0.9654901  0.9863400    0.00000       Uiso       1.00
       H42          H  0.5876200  0.9162100  1.1585100    0.00000       Uiso       1.00
       H43          H  0.6465200  0.8762401  1.1733500    0.00000       Uiso       1.00
       H44          H  0.6227200  0.8275701  0.8630000    0.00000       Uiso       1.00
       H45          H  0.5639200  0.8676301  0.8489100    0.00000       Uiso       1.00
       H46          H  0.6907500  0.8265800  1.1047800    0.00000       Uiso       1.00
       H47          H  0.2222400  0.7273400  0.7877200    0.00000       Uiso       1.00
       H48          H  0.2776300  0.7718500  1.1314800    0.00000       Uiso       1.00
        N6          N  0.6856400  0.8019700  0.9547700    0.00000       Uiso       1.00
       C79          C  0.0358800  0.5409200  0.9939700    0.00000       Uiso       1.00
       C80          C  0.0710400  0.4799500  0.9903600    0.00000       Uiso       1.00
       C81          C  0.0356200  0.4182700  0.9951100    0.00000       Uiso       1.00
       C82          C  0.0718600  0.3951300  1.0020601    0.00000       Uiso       1.00
       C83          C  0.0953800  0.3971401  1.0934700    0.00000       Uiso       1.00
       C84          C  0.1288500  0.3743100  1.1019000    0.00000       Uiso       1.00
       C85          C  0.1392300  0.3490000  1.0193100    0.00000       Uiso       1.00
       C86          C  0.1155500  0.3469600  0.9277800    0.00000       Uiso       1.00
       C87          C  0.0820100  0.3697501  0.9195500    0.00000       Uiso       1.00
       C88          C  0.1743100  0.3246301  1.0312799    0.00000       Uiso       1.00
       C89          C  0.7184700  0.2238200  0.9588699    0.00000       Uiso       1.00
       C90          C  0.7342500  0.2371700  0.8627900    0.00000       Uiso       1.00
       C91          C  0.7656801  0.2629000  1.0557200    0.00000       Uiso       1.00
       H49          H  0.0990000  0.4654900  0.9863400    0.00000       Uiso       1.00
       H50          H  0.0876200  0.4162100  1.1585100    0.00000       Uiso       1.00
       H51          H  0.1465200  0.3762400  1.1733500    0.00000       Uiso       1.00
       H52          H  0.1227200  0.3275700  0.8630000    0.00000       Uiso       1.00
       H53          H  0.0639200  0.3676300  0.8489100    0.00000       Uiso       1.00
       H54          H  0.1907500  0.3265800  1.1047800    0.00000       Uiso       1.00
       H55          H  0.7222400  0.2273400  0.7877200    0.00000       Uiso       1.00
       H56          H  0.7776300  0.2718500  1.1314800    0.00000       Uiso       1.00
        N7          N  0.1856400  0.3019700  0.9547700    0.00000       Uiso       1.00
       C92          C  0.0358800  0.0409200  0.4939700    0.00000       Uiso       1.00
       C93          C  0.0710400  0.9799501  0.4903600    0.00000       Uiso       1.00
       C94          C  0.0356200  0.9182701  0.4951100    0.00000       Uiso       1.00
       C95          C  0.0718600  0.8951300  0.5020600    0.00000       Uiso       1.00
       C96          C  0.0953800  0.8971400  0.5934700    0.00000       Uiso       1.00
       C97          C  0.1288500  0.8743101  0.6019000    0.00000       Uiso       1.00
       C98          C  0.1392300  0.8490000  0.5193100    0.00000       Uiso       1.00
       C99          C  0.1155500  0.8469601  0.4277800    0.00000       Uiso       1.00
      C100          C  0.0820100  0.8697501  0.4195500    0.00000       Uiso       1.00
      C101          C  0.1743100  0.8246300  0.5312800    0.00000       Uiso       1.00
      C102          C  0.7184700  0.7238200  0.4588700    0.00000       Uiso       1.00
      C103          C  0.7342500  0.7371700  0.3627900    0.00000       Uiso       1.00
      C104          C  0.7656801  0.7629000  0.5557200    0.00000       Uiso       1.00
       H57          H  0.0990000  0.9654901  0.4863400    0.00000       Uiso       1.00
       H58          H  0.0876200  0.9162100  0.6585100    0.00000       Uiso       1.00
       H59          H  0.1465200  0.8762401  0.6733500    0.00000       Uiso       1.00
       H60          H  0.1227200  0.8275701  0.3630000    0.00000       Uiso       1.00
       H61          H  0.0639200  0.8676301  0.3489100    0.00000       Uiso       1.00
       H62          H  0.1907500  0.8265800  0.6047800    0.00000       Uiso       1.00
       H63          H  0.7222400  0.7273400  0.2877200    0.00000       Uiso       1.00
       H64          H  0.7776300  0.7718500  0.6314800    0.00000       Uiso       1.00
        N8          N  0.1856400  0.8019700  0.4547700    0.00000       Uiso       1.00
      C105          C  0.4641200  0.5409200  0.4939700    0.00000       Uiso       1.00
      C106          C  0.4289600  0.4799500  0.4903600    0.00000       Uiso       1.00
      C107          C  0.4643800  0.4182700  0.4951100    0.00000       Uiso       1.00
      C108          C  0.4281400  0.3951300  0.5020600    0.00000       Uiso       1.00
      C109          C  0.4046200  0.3971401  0.5934700    0.00000       Uiso       1.00
      C110          C  0.3711500  0.3743100  0.6019000    0.00000       Uiso       1.00
      C111          C  0.3607700  0.3490000  0.5193100    0.00000       Uiso       1.00
      C112          C  0.3844500  0.3469600  0.4277800    0.00000       Uiso       1.00
      C113          C  0.4179900  0.3697501  0.4195500    0.00000       Uiso       1.00
      C114          C  0.3256900  0.3246301  0.5312800    0.00000       Uiso       1.00
      C115          C  0.7815300  0.2238200  0.4588700    0.00000       Uiso       1.00
      C116          C  0.7657500  0.2371700  0.3627900    0.00000       Uiso       1.00
      C117          C  0.7343200  0.2629000  0.5557200    0.00000       Uiso       1.00
       H65          H  0.4010000  0.4654900  0.4863400    0.00000       Uiso       1.00
       H66          H  0.4123800  0.4162100  0.6585100    0.00000       Uiso       1.00
       H67          H  0.3534800  0.3762400  0.6733500    0.00000       Uiso       1.00
       H68          H  0.3772800  0.3275700  0.3630000    0.00000       Uiso       1.00
       H69          H  0.4360800  0.3676300  0.3489100    0.00000       Uiso       1.00
       H70          H  0.3092500  0.3265800  0.6047800    0.00000       Uiso       1.00
       H71          H  0.7777601  0.2273400  0.2877200    0.00000       Uiso       1.00
       H72          H  0.7223700  0.2718500  0.6314800    0.00000       Uiso       1.00
        N9          N  0.3143600  0.3019700  0.4547700    0.00000       Uiso       1.00
      C118          C  0.4641200  0.0409200  0.9939700    0.00000       Uiso       1.00
      C119          C  0.4289600  0.9799501  0.9903600    0.00000       Uiso       1.00
      C120          C  0.4643800  0.9182701  0.9951100    0.00000       Uiso       1.00
      C121          C  0.4281400  0.8951300  1.0020601    0.00000       Uiso       1.00
      C122          C  0.4046200  0.8971400  1.0934700    0.00000       Uiso       1.00
      C123          C  0.3711500  0.8743101  1.1019000    0.00000       Uiso       1.00
      C124          C  0.3607700  0.8490000  1.0193100    0.00000       Uiso       1.00
      C125          C  0.3844500  0.8469601  0.9277800    0.00000       Uiso       1.00
      C126          C  0.4179900  0.8697501  0.9195500    0.00000       Uiso       1.00
      C127          C  0.3256900  0.8246300  1.0312799    0.00000       Uiso       1.00
      C128          C  0.7815300  0.7238200  0.9588699    0.00000       Uiso       1.00
      C129          C  0.7657500  0.7371700  0.8627900    0.00000       Uiso       1.00
      C130          C  0.7343200  0.7629000  1.0557200    0.00000       Uiso       1.00
       H73          H  0.4010000  0.9654901  0.9863400    0.00000       Uiso       1.00
       H74          H  0.4123800  0.9162100  1.1585100    0.00000       Uiso       1.00
       H75          H  0.3534800  0.8762401  1.1733500    0.00000       Uiso       1.00
       H76          H  0.3772800  0.8275701  0.8630000    0.00000       Uiso       1.00
       H77          H  0.4360800  0.8676301  0.8489100    0.00000       Uiso       1.00
       H78          H  0.3092500  0.8265800  1.1047800    0.00000       Uiso       1.00
       H79          H  0.7777601  0.7273400  0.7877200    0.00000       Uiso       1.00
       H80          H  0.7223700  0.7718500  1.1314800    0.00000       Uiso       1.00
       N10          N  0.3143600  0.8019700  0.9547700    0.00000       Uiso       1.00
      C131          C  0.9641200  0.5409200  0.9939700    0.00000       Uiso       1.00
      C132          C  0.9289600  0.4799500  0.9903600    0.00000       Uiso       1.00
      C133          C  0.9643800  0.4182700  0.9951100    0.00000       Uiso       1.00
      C134          C  0.9281400  0.3951300  1.0020601    0.00000       Uiso       1.00
      C135          C  0.9046200  0.3971401  1.0934700    0.00000       Uiso       1.00
      C136          C  0.8711500  0.3743100  1.1019000    0.00000       Uiso       1.00
      C137          C  0.8607700  0.3490000  1.0193100    0.00000       Uiso       1.00
      C138          C  0.8844500  0.3469600  0.9277800    0.00000       Uiso       1.00
      C139          C  0.9179900  0.3697501  0.9195500    0.00000       Uiso       1.00
      C140          C  0.8256900  0.3246301  1.0312799    0.00000       Uiso       1.00
      C141          C  0.2815300  0.2238200  0.9588699    0.00000       Uiso       1.00
      C142          C  0.2657500  0.2371700  0.8627900    0.00000       Uiso       1.00
      C143          C  0.2343200  0.2629000  1.0557200    0.00000       Uiso       1.00
       H81          H  0.9010000  0.4654900  0.9863400    0.00000       Uiso       1.00
       H82          H  0.9123800  0.4162100  1.1585100    0.00000       Uiso       1.00
       H83          H  0.8534800  0.3762400  1.1733500    0.00000       Uiso       1.00
       H84          H  0.8772800  0.3275700  0.8630000    0.00000       Uiso       1.00
       H85          H  0.9360800  0.3676300  0.8489100    0.00000       Uiso       1.00
       H86          H  0.8092500  0.3265800  1.1047800    0.00000       Uiso       1.00
       H87          H  0.2777600  0.2273400  0.7877200    0.00000       Uiso       1.00
       H88          H  0.2223700  0.2718500  1.1314800    0.00000       Uiso       1.00
       N11          N  0.8143600  0.3019700  0.9547700    0.00000       Uiso       1.00
      C144          C  0.9641200  0.0409200  0.4939700    0.00000       Uiso       1.00
      C145          C  0.9289600  0.9799501  0.4903600    0.00000       Uiso       1.00
      C146          C  0.9643800  0.9182701  0.4951100    0.00000       Uiso       1.00
      C147          C  0.9281400  0.8951300  0.5020600    0.00000       Uiso       1.00
      C148          C  0.9046200  0.8971400  0.5934700    0.00000       Uiso       1.00
      C149          C  0.8711500  0.8743101  0.6019000    0.00000       Uiso       1.00
      C150          C  0.8607700  0.8490000  0.5193100    0.00000       Uiso       1.00
      C151          C  0.8844500  0.8469601  0.4277800    0.00000       Uiso       1.00
      C152          C  0.9179900  0.8697501  0.4195500    0.00000       Uiso       1.00
      C153          C  0.8256900  0.8246300  0.5312800    0.00000       Uiso       1.00
      C154          C  0.2815300  0.7238200  0.4588700    0.00000       Uiso       1.00
      C155          C  0.2657500  0.7371700  0.3627900    0.00000       Uiso       1.00
      C156          C  0.2343200  0.7629000  0.5557200    0.00000       Uiso       1.00
       H89          H  0.9010000  0.9654901  0.4863400    0.00000       Uiso       1.00
       H90          H  0.9123800  0.9162100  0.6585100    0.00000       Uiso       1.00
       H91          H  0.8534800  0.8762401  0.6733500    0.00000       Uiso       1.00
       H92          H  0.8772800  0.8275701  0.3630000    0.00000       Uiso       1.00
       H93          H  0.9360800  0.8676301  0.3489100    0.00000       Uiso       1.00
       H94          H  0.8092500  0.8265800  0.6047800    0.00000       Uiso       1.00
       H95          H  0.2777600  0.7273400  0.2877200    0.00000       Uiso       1.00
       H96          H  0.2223700  0.7718500  0.6314800    0.00000       Uiso       1.00
       N12          N  0.8143600  0.8019700  0.4547700    0.00000       Uiso       1.00
      C157          C  0.5358800  0.4590800  0.4939700    0.00000       Uiso       1.00
      C158          C  0.5710400  0.5200500  0.4903600    0.00000       Uiso       1.00
      C159          C  0.5356200  0.5817301  0.4951100    0.00000       Uiso       1.00
      C160          C  0.5718600  0.6048701  0.5020600    0.00000       Uiso       1.00
      C161          C  0.5953800  0.6028600  0.5934700    0.00000       Uiso       1.00
      C162          C  0.6288500  0.6256900  0.6019000    0.00000       Uiso       1.00
      C163          C  0.6392300  0.6510000  0.5193100    0.00000       Uiso       1.00
      C164          C  0.6155500  0.6530400  0.4277800    0.00000       Uiso       1.00
      C165          C  0.5820100  0.6302500  0.4195500    0.00000       Uiso       1.00
      C166          C  0.6743100  0.6753700  0.5312800    0.00000       Uiso       1.00
      C167          C  0.2184700  0.7761800  0.4588700    0.00000       Uiso       1.00
      C168          C  0.2342500  0.7628300  0.3627900    0.00000       Uiso       1.00
      C169          C  0.2656800  0.7371001  0.5557200    0.00000       Uiso       1.00
       H97          H  0.5990000  0.5345100  0.4863400    0.00000       Uiso       1.00
       H98          H  0.5876200  0.5837901  0.6585100    0.00000       Uiso       1.00
       H99          H  0.6465200  0.6237600  0.6733500    0.00000       Uiso       1.00
      H100          H  0.6227200  0.6724300  0.3630000    0.00000       Uiso       1.00
      H101          H  0.5639200  0.6323701  0.3489100    0.00000       Uiso       1.00
      H102          H  0.6907500  0.6734201  0.6047800    0.00000       Uiso       1.00
      H103          H  0.2222400  0.7726600  0.2877200    0.00000       Uiso       1.00
      H104          H  0.2776300  0.7281501  0.6314800    0.00000       Uiso       1.00
       N13          N  0.6856400  0.6980301  0.4547700    0.00000       Uiso       1.00
      C170          C  0.5358800  0.9590801  0.9939700    0.00000       Uiso       1.00
      C171          C  0.5710400  0.0200500  0.9903600    0.00000       Uiso       1.00
      C172          C  0.5356200  0.0817300  0.9951100    0.00000       Uiso       1.00
      C173          C  0.5718600  0.1048700  1.0020601    0.00000       Uiso       1.00
      C174          C  0.5953800  0.1028600  1.0934700    0.00000       Uiso       1.00
      C175          C  0.6288500  0.1256900  1.1019000    0.00000       Uiso       1.00
      C176          C  0.6392300  0.1510000  1.0193100    0.00000       Uiso       1.00
      C177          C  0.6155500  0.1530400  0.9277800    0.00000       Uiso       1.00
      C178          C  0.5820100  0.1302500  0.9195500    0.00000       Uiso       1.00
      C179          C  0.6743100  0.1753700  1.0312799    0.00000       Uiso       1.00
      C180          C  0.2184700  0.2761801  0.9588699    0.00000       Uiso       1.00
      C181          C  0.2342500  0.2628300  0.8627900    0.00000       Uiso       1.00
      C182          C  0.2656800  0.2371000  1.0557200    0.00000       Uiso       1.00
      H105          H  0.5990000  0.0345100  0.9863400    0.00000       Uiso       1.00
      H106          H  0.5876200  0.0837900  1.1585100    0.00000       Uiso       1.00
      H107          H  0.6465200  0.1237600  1.1733500    0.00000       Uiso       1.00
      H108          H  0.6227200  0.1724300  0.8630000    0.00000       Uiso       1.00
      H109          H  0.5639200  0.1323700  0.8489100    0.00000       Uiso       1.00
      H110          H  0.6907500  0.1734200  1.1047800    0.00000       Uiso       1.00
      H111          H  0.2222400  0.2726600  0.7877200    0.00000       Uiso       1.00
      H112          H  0.2776300  0.2281500  1.1314800    0.00000       Uiso       1.00
       N14          N  0.6856400  0.1980300  0.9547700    0.00000       Uiso       1.00
      C183          C  0.0358800  0.4590800  0.9939700    0.00000       Uiso       1.00
      C184          C  0.0710400  0.5200500  0.9903600    0.00000       Uiso       1.00
      C185          C  0.0356200  0.5817301  0.9951100    0.00000       Uiso       1.00
      C186          C  0.0718600  0.6048701  1.0020601    0.00000       Uiso       1.00
      C187          C  0.0953800  0.6028600  1.0934700    0.00000       Uiso       1.00
      C188          C  0.1288500  0.6256900  1.1019000    0.00000       Uiso       1.00
      C189          C  0.1392300  0.6510000  1.0193100    0.00000       Uiso       1.00
      C190          C  0.1155500  0.6530400  0.9277800    0.00000       Uiso       1.00
      C191          C  0.0820100  0.6302500  0.9195500    0.00000       Uiso       1.00
      C192          C  0.1743100  0.6753700  1.0312799    0.00000       Uiso       1.00
      C193          C  0.7184700  0.7761800  0.9588699    0.00000       Uiso       1.00
      C194          C  0.7342500  0.7628300  0.8627900    0.00000       Uiso       1.00
      C195          C  0.7656801  0.7371001  1.0557200    0.00000       Uiso       1.00
      H113          H  0.0990000  0.5345100  0.9863400    0.00000       Uiso       1.00
      H114          H  0.0876200  0.5837901  1.1585100    0.00000       Uiso       1.00
      H115          H  0.1465200  0.6237600  1.1733500    0.00000       Uiso       1.00
      H116          H  0.1227200  0.6724300  0.8630000    0.00000       Uiso       1.00
      H117          H  0.0639200  0.6323701  0.8489100    0.00000       Uiso       1.00
      H118          H  0.1907500  0.6734201  1.1047800    0.00000       Uiso       1.00
      H119          H  0.7222400  0.7726600  0.7877200    0.00000       Uiso       1.00
      H120          H  0.7776300  0.7281501  1.1314800    0.00000       Uiso       1.00
       N15          N  0.1856400  0.6980301  0.9547700    0.00000       Uiso       1.00
      C196          C  0.0358800  0.9590801  0.4939700    0.00000       Uiso       1.00
      C197          C  0.0710400  0.0200500  0.4903600    0.00000       Uiso       1.00
      C198          C  0.0356200  0.0817300  0.4951100    0.00000       Uiso       1.00
      C199          C  0.0718600  0.1048700  0.5020600    0.00000       Uiso       1.00
      C200          C  0.0953800  0.1028600  0.5934700    0.00000       Uiso       1.00
      C201          C  0.1288500  0.1256900  0.6019000    0.00000       Uiso       1.00
      C202          C  0.1392300  0.1510000  0.5193100    0.00000       Uiso       1.00
      C203          C  0.1155500  0.1530400  0.4277800    0.00000       Uiso       1.00
      C204          C  0.0820100  0.1302500  0.4195500    0.00000       Uiso       1.00
      C205          C  0.1743100  0.1753700  0.5312800    0.00000       Uiso       1.00
      C206          C  0.7184700  0.2761801  0.4588700    0.00000       Uiso       1.00
      C207          C  0.7342500  0.2628300  0.3627900    0.00000       Uiso       1.00
      C208          C  0.7656801  0.2371000  0.5557200    0.00000       Uiso       1.00
      H121          H  0.0990000  0.0345100  0.4863400    0.00000       Uiso       1.00
      H122          H  0.0876200  0.0837900  0.6585100    0.00000       Uiso       1.00
      H123          H  0.1465200  0.1237600  0.6733500    0.00000       Uiso       1.00
      H124          H  0.1227200  0.1724300  0.3630000    0.00000       Uiso       1.00
      H125          H  0.0639200  0.1323700  0.3489100    0.00000       Uiso       1.00
      H126          H  0.1907500  0.1734200  0.6047800    0.00000       Uiso       1.00
      H127          H  0.7222400  0.2726600  0.2877200    0.00000       Uiso       1.00
      H128          H  0.7776300  0.2281500  0.6314800    0.00000       Uiso       1.00
       N16          N  0.1856400  0.1980300  0.4547700    0.00000       Uiso       1.00
      C209          C  0.5000000  0.4795100  0.4940900    0.00000       Uiso       1.00
      C210          C  0.5000000  0.6014501  0.4943300    0.00000       Uiso       1.00
      H129          H  0.5000000  0.6327100  0.4968200    0.00000       Uiso       1.00
      C211          C  0.5000000  0.9795101  0.9940900    0.00000       Uiso       1.00
      C212          C  0.5000000  0.1014500  0.9943300    0.00000       Uiso       1.00
      H130          H  0.5000000  0.1327100  0.9968200    0.00000       Uiso       1.00
      C213          C  0.0000000  0.4795100  0.9940900    0.00000       Uiso       1.00
      C214          C  0.0000000  0.6014501  0.9943300    0.00000       Uiso       1.00
      H131          H  0.0000000  0.6327100  0.9968200    0.00000       Uiso       1.00
      C215          C  0.0000000  0.9795101  0.4940900    0.00000       Uiso       1.00
      C216          C  0.0000000  0.1014500  0.4943300    0.00000       Uiso       1.00
      H132          H  0.0000000  0.1327100  0.4968200    0.00000       Uiso       1.00
      C217          C  0.5000000  0.5204901  0.4940900    0.00000       Uiso       1.00
      C218          C  0.5000000  0.3985500  0.4943300    0.00000       Uiso       1.00
      H133          H  0.5000000  0.3672900  0.4968200    0.00000       Uiso       1.00
      C219          C  0.5000000  0.0204900  0.9940900    0.00000       Uiso       1.00
      C220          C  0.5000000  0.8985500  0.9943300    0.00000       Uiso       1.00
      H134          H  0.5000000  0.8672900  0.9968200    0.00000       Uiso       1.00
      C221          C  0.0000000  0.5204901  0.9940900    0.00000       Uiso       1.00
      C222          C  0.0000000  0.3985500  0.9943300    0.00000       Uiso       1.00
      H135          H  0.0000000  0.3672900  0.9968200    0.00000       Uiso       1.00
      C223          C  0.0000000  0.0204900  0.4940900    0.00000       Uiso       1.00
      C224          C  0.0000000  0.8985500  0.4943300    0.00000       Uiso       1.00
      H136          H  0.0000000  0.8672900  0.4968200    0.00000       Uiso       1.00
