data_iPrTAPB-TFP
_audit_creation_date              0000-00-00
_audit_creation_method            'LanYouShi'
_symmetry_space_group_name_H-M    'P1'
_cell_length_a                    17.7401009
_cell_length_b                    4.1999998
_cell_length_c                    19.0282001
_cell_angle_alpha                 90.0000000
_cell_angle_beta                  114.7657013
_cell_angle_gamma                 90.0000000
loop_
_atom_site_label
_atom_site_type_symbol
_atom_site_fract_x
_atom_site_fract_y
_atom_site_fract_z
_atom_site_U_iso_or_equiv
_atom_site_adp_type
_atom_site_occupancy
        C1          C  0.5307006  0.5000023  0.6066028    0.00000       Uiso       1.00
        C2          C  0.5475757  0.5000023  0.4828961    0.00000       Uiso       1.00
        C3          C  0.4073991  0.5000023  0.4795602    0.00000       Uiso       1.00
        C4          C  0.4442654  0.5000023  0.5620345    0.00000       Uiso       1.00
        C5          C  0.5809184  0.5000023  0.5654528    0.00000       Uiso       1.00
        C6          C  0.4604692  0.5000023  0.4411725    0.00000       Uiso       1.00
        C1          C  0.7934982  0.5000023  0.0717776    0.00000       Uiso       1.00
        C2          C  0.7815145  0.5000023  0.1997089    0.00000       Uiso       1.00
        C3          C  0.9217671  0.5000023  0.1972481    0.00000       Uiso       1.00
        C4          C  0.8802829  0.5000023  0.1151591    0.00000       Uiso       1.00
        C5          C  0.7479701  0.5000023  0.1176893    0.00000       Uiso       1.00
        C6          C  0.8685471  0.5000023  0.2353912    0.00000       Uiso       1.00
        O1          O  0.3986200  0.5000023  0.5973516    0.00000       Uiso       1.00
        O2          O  0.6574849  0.5000023  0.6033718    0.00000       Uiso       1.00
        O3          O  0.4291281  0.5000023  0.3686046    0.00000       Uiso       1.00
        H1          H  0.9153875  0.5000023  0.0855942    0.00000       Uiso       1.00
        H2          H  0.6866579  0.5000023  0.0901755    0.00000       Uiso       1.00
        H3          H  0.8946986  0.5000023  0.2930222    0.00000       Uiso       1.00
        C1          C  0.7544145  0.5000023  0.9880731    0.00000       Uiso       1.00
        C2          C  0.7319833  0.5000023  0.2433325    0.00000       Uiso       1.00
        C3          C  0.0102559  0.5000023  0.2391131    0.00000       Uiso       1.00
        C4          C  0.6673742  0.5000023  0.9449441    0.00000       Uiso       1.00
        C5          C  0.7666702  0.5000023  0.3259554    0.00000       Uiso       1.00
        C6          C  0.0656344  0.5000023  0.2027377    0.00000       Uiso       1.00
        C7          C  0.3200691  0.5000023  0.4405638    0.00000       Uiso       1.00
        C8          C  0.6027346  0.5000023  0.4465627    0.00000       Uiso       1.00
        C9          C  0.5620775  0.5000023  0.6889735    0.00000       Uiso       1.00
       C10          C  0.0503920  0.5000023  0.3216094    0.00000       Uiso       1.00
       C11          C  0.6442603  0.5000023  0.2082597    0.00000       Uiso       1.00
       C12          C  0.7988029  0.5000023  0.9408546    0.00000       Uiso       1.00
       C13          C  0.7602822  0.5000023  0.8592417    0.00000       Uiso       1.00
       C14          C  0.5964087  0.5000023  0.2511591    0.00000       Uiso       1.00
       C15          C  0.1359520  0.5000023  0.3634819    0.00000       Uiso       1.00
        N1          N  0.2729091  0.5000023  0.3629108    0.00000       Uiso       1.00
        N2          N  0.5821563  0.5000023  0.3692575    0.00000       Uiso       1.00
        N3          N  0.6423407  0.5000023  0.7401169    0.00000       Uiso       1.00
       C16          C  0.1519617  0.5000023  0.2446254    0.00000       Uiso       1.00
       C17          C  0.7194557  0.5000023  0.3691129    0.00000       Uiso       1.00
       C18          C  0.6285164  0.5000023  0.8636550    0.00000       Uiso       1.00
        H1          H  0.6279816  0.5000023  0.9706313    0.00000       Uiso       1.00
        H2          H  0.8280765  0.5000023  0.3588698    0.00000       Uiso       1.00
        H3          H  0.0452467  0.5000023  0.1442700    0.00000       Uiso       1.00
        H4          H  0.6636668  0.5000023  0.4818777    0.00000       Uiso       1.00
        H5          H  0.5202433  0.5000023  0.7120247    0.00000       Uiso       1.00
        H6          H  0.0196067  0.5000023  0.3556924    0.00000       Uiso       1.00
        H7          H  0.6114318  0.5000023  0.1499698    0.00000       Uiso       1.00
        H8          H  0.8610877  0.5000023  0.9639332    0.00000       Uiso       1.00
       C19          C  0.6743276  0.5000023  0.8189176    0.00000       Uiso       1.00
       C20          C  0.6330022  0.5000023  0.3324870    0.00000       Uiso       1.00
       C21          C  0.1891510  0.5000023  0.3260630    0.00000       Uiso       1.00
        H9          H  0.2893000  0.5000023  0.4747966    0.00000       Uiso       1.00
       H10          H  0.3020806  0.5000023  0.3302620    0.00000       Uiso       1.00
       H11          H  0.5241608  0.5000023  0.3362621    0.00000       Uiso       1.00
       H12          H  0.6816804  0.5000023  0.7178091    0.00000       Uiso       1.00
       C22          C  0.7651284  0.5000023  0.4580497    0.00000       Uiso       1.00
       C23          C  0.8595207  0.5000023  0.4821171    0.00000       Uiso       1.00
       C24          C  0.7409483  0.1999644  0.4903681    0.00000       Uiso       1.00
       H13          H  0.7470493  0.7212311  0.4821590    0.00000       Uiso       1.00
       H14          H  0.8774387  0.2783310  0.4580494    0.00000       Uiso       1.00
       H15          H  0.8934092  0.4998550  0.5479470    0.00000       Uiso       1.00
       H16          H  0.8775315  0.7216188  0.4580953    0.00000       Uiso       1.00
       H17          H  0.7591323 -0.0212120  0.4663388    0.00000       Uiso       1.00
       H18          H  0.6710525  0.1992218  0.4725157    0.00000       Uiso       1.00
       H19          H  0.7747943  0.1998844  0.5561999    0.00000       Uiso       1.00
       C25          C  0.5010827  0.5000023  0.2077890    0.00000       Uiso       1.00
       C26          C  0.4761993  0.5000023  0.1199334    0.00000       Uiso       1.00
       C27          C  0.4659886  0.8000402  0.2298663    0.00000       Uiso       1.00
       H20          H  0.4749023  0.2787736  0.2242965    0.00000       Uiso       1.00
       H21          H  0.5023331  0.7216737  0.1035751    0.00000       Uiso       1.00
       H22          H  0.4056412  0.5001496  0.0877553    0.00000       Uiso       1.00
       H23          H  0.5022847  0.2783858  0.1034884    0.00000       Uiso       1.00
       H24          H  0.4920841  1.0212166  0.2132606    0.00000       Uiso       1.00
       H25          H  0.4844476  0.8007829  0.2949220    0.00000       Uiso       1.00
       H26          H  0.3954279  0.8001203  0.1977274    0.00000       Uiso       1.00
       C28          C  0.2073909  0.5000023  0.2003325    0.00000       Uiso       1.00
       C29          C  0.1523893  0.5000023  0.1126612    0.00000       Uiso       1.00
       C30          C  0.2623296  0.1999644  0.2218587    0.00000       Uiso       1.00
       H27          H  0.2484097  0.7212311  0.2164286    0.00000       Uiso       1.00
       H28          H  0.1115522  0.2783310  0.0967128    0.00000       Uiso       1.00
       H29          H  0.1933472  0.4998550  0.0798005    0.00000       Uiso       1.00
       H30          H  0.1115217  0.7216188  0.0966261    0.00000       Uiso       1.00
       H31          H  0.2213061 -0.0212120  0.2056638    0.00000       Uiso       1.00
       H32          H  0.3030245  0.1992218  0.2867783    0.00000       Uiso       1.00
       H33          H  0.3033257  0.1998844  0.1890369    0.00000       Uiso       1.00
       C31          C  0.1699902  0.5000023  0.4524045    0.00000       Uiso       1.00
       C32          C  0.0970789  0.5000023  0.4762679    0.00000       Uiso       1.00
       C33          C  0.2231808  0.8000402  0.4848173    0.00000       Uiso       1.00
       H34          H  0.2097109  0.2787736  0.4765843    0.00000       Uiso       1.00
       H35          H  0.0575568  0.7216737  0.4521300    0.00000       Uiso       1.00
       H36          H  0.1221913  0.5001496  0.5420870    0.00000       Uiso       1.00
       H37          H  0.0575051  0.2783858  0.4521758    0.00000       Uiso       1.00
       H38          H  0.1834267  1.0212166  0.4607173    0.00000       Uiso       1.00
       H39          H  0.2771425  0.8007829  0.4671159    0.00000       Uiso       1.00
       H40          H  0.2483373  0.8001203  0.5506385    0.00000       Uiso       1.00
       C34          C  0.5329458  0.5000023  0.8242694    0.00000       Uiso       1.00
       C35          C  0.4988465  0.5000023  0.8865554    0.00000       Uiso       1.00
       C36          C  0.5023109  0.1999644  0.7736980    0.00000       Uiso       1.00
       H41          H  0.5100965  0.7212311  0.7865071    0.00000       Uiso       1.00
       H42          H  0.5216694  0.2783310  0.9241371    0.00000       Uiso       1.00
       H43          H  0.4280982  0.4998550  0.8574757    0.00000       Uiso       1.00
       H44          H  0.5216132  0.7216188  0.9241782    0.00000       Uiso       1.00
       H45          H  0.5250679 -0.0212120  0.8114817    0.00000       Uiso       1.00
       H46          H  0.5275925  0.1992218  0.7276042    0.00000       Uiso       1.00
       H47          H  0.4315649  0.1998844  0.7445789    0.00000       Uiso       1.00
       C37          C  0.8136729  0.5000023  0.8129580    0.00000       Uiso       1.00
       C38          C  0.9062186  0.5000023  0.8693794    0.00000       Uiso       1.00
       C39          C  0.7942535  0.8000402  0.7618672    0.00000       Uiso       1.00
       H48          H  0.7991472  0.2787736  0.7748103    0.00000       Uiso       1.00
       H49          H  0.9205953  0.7216737  0.9073521    0.00000       Uiso       1.00
       H50          H  0.9458157  0.5001496  0.8351899    0.00000       Uiso       1.00
       H51          H  0.9206888  0.2783859  0.9073864    0.00000       Uiso       1.00
       H52          H  0.8088880  1.0212166  0.8000271    0.00000       Uiso       1.00
       H53          H  0.7257218  0.8007829  0.7201177    0.00000       Uiso       1.00
       H54          H  0.8338107  0.8001203  0.7276402    0.00000       Uiso       1.00
