data_iPrTAPB-TFPB
_audit_creation_date              0000-00-00
_audit_creation_method            'LanYouShi'
_symmetry_space_group_name_H-M    'P1'
_cell_length_a                    26.4636002
_cell_length_b                    26.4636002
_cell_length_c                    4.1999998
_cell_angle_alpha                 90.0000000
_cell_angle_beta                  90.0000000
_cell_angle_gamma                 120.0000000
loop_
_atom_site_label
_atom_site_type_symbol
_atom_site_fract_x
_atom_site_fract_y
_atom_site_fract_z
_atom_site_U_iso_or_equiv
_atom_site_adp_type
_atom_site_occupancy
        C1          C  0.7304489  0.3659439  0.5000046    0.00000       Uiso       1.00
        C2          C  0.6340578  0.3645058  0.5000046    0.00000       Uiso       1.00
        C3          C  0.6354959  0.2695528  0.5000046    0.00000       Uiso       1.00
        C4          C  0.6973752  0.3039809  0.5000046    0.00000       Uiso       1.00
        C5          C  0.6960208  0.3933951  0.5000046    0.00000       Uiso       1.00
        C6          C  0.6066067  0.3026266  0.5000046    0.00000       Uiso       1.00
        C1          C  0.2700506  0.6419981  0.5000046    0.00000       Uiso       1.00
        C2          C  0.3580036  0.6280534  0.5000046    0.00000       Uiso       1.00
        C3          C  0.3719484  0.7299511  0.5000046    0.00000       Uiso       1.00
        C4          C  0.3101080  0.7030217  0.5000046    0.00000       Uiso       1.00
        C5          C  0.2969800  0.6070871  0.5000046    0.00000       Uiso       1.00
        C6          C  0.3929146  0.6898938  0.5000046    0.00000       Uiso       1.00
        H1          H  0.7205490  0.2774504  0.5000046    0.00000       Uiso       1.00
        H2          H  0.7225513  0.4430995  0.5000046    0.00000       Uiso       1.00
        H3          H  0.5569022  0.2794526  0.5000046    0.00000       Uiso       1.00
        H1          H  0.2932898  0.7351537  0.5000046    0.00000       Uiso       1.00
        H2          H  0.2648479  0.5581369  0.5000046    0.00000       Uiso       1.00
        H3          H  0.4418648  0.7067119  0.5000046    0.00000       Uiso       1.00
        C1          C  0.2073967  0.6175745  0.5000046    0.00000       Uiso       1.00
        C2          C  0.3824272  0.5898231  0.5000046    0.00000       Uiso       1.00
        C3          C  0.4101786  0.7926050  0.5000046    0.00000       Uiso       1.00
        C4          C  0.7935950  0.3982278  0.5000046    0.00000       Uiso       1.00
        C5          C  0.6017739  0.3953680  0.5000046    0.00000       Uiso       1.00
        C6          C  0.6046337  0.2064068  0.5000046    0.00000       Uiso       1.00
        C7          C  0.1801852  0.6525515  0.5000046    0.00000       Uiso       1.00
        C8          C  0.3474502  0.5276345  0.5000046    0.00000       Uiso       1.00
        C9          C  0.4723672  0.8198166  0.5000046    0.00000       Uiso       1.00
       C10          C  0.8283326  0.3707398  0.5000046    0.00000       Uiso       1.00
       C11          C  0.6292619  0.4575936  0.5000046    0.00000       Uiso       1.00
       C12          C  0.5424080  0.1716691  0.5000046    0.00000       Uiso       1.00
       C13          C  0.6335663  0.1730263  0.5000046    0.00000       Uiso       1.00
       C14          C  0.8269754  0.4605408  0.5000046    0.00000       Uiso       1.00
       C15          C  0.5394608  0.3664354  0.5000046    0.00000       Uiso       1.00
       C16          C  0.3892248  0.8329790  0.5000046    0.00000       Uiso       1.00
       C17          C  0.1670227  0.5562466  0.5000046    0.00000       Uiso       1.00
       C18          C  0.4437551  0.6107770  0.5000046    0.00000       Uiso       1.00
       C19          C  0.1193240  0.6292207  0.5000046    0.00000       Uiso       1.00
       C20          C  0.3707810  0.4901042  0.5000046    0.00000       Uiso       1.00
       C21          C  0.5098975  0.8806777  0.5000046    0.00000       Uiso       1.00
       C22          C  0.8897125  0.4018913  0.5000046    0.00000       Uiso       1.00
       C23          C  0.5981104  0.4878220  0.5000046    0.00000       Uiso       1.00
       C24          C  0.5121797  0.1102892  0.5000046    0.00000       Uiso       1.00
       C25          C  0.6038079  0.1116532  0.5000046    0.00000       Uiso       1.00
       C26          C  0.8883485  0.4921556  0.5000046    0.00000       Uiso       1.00
       C27          C  0.5078461  0.3961937  0.5000046    0.00000       Uiso       1.00
       C28          C  0.4260527  0.8939317  0.5000046    0.00000       Uiso       1.00
       C29          C  0.1060700  0.5321219  0.5000046    0.00000       Uiso       1.00
       C30          C  0.4678798  0.5739490  0.5000046    0.00000       Uiso       1.00
       C31          C  0.0811688  0.5684105  0.5000046    0.00000       Uiso       1.00
       C32          C  0.4315913  0.5127593  0.5000046    0.00000       Uiso       1.00
       C33          C  0.4872424  0.9188328  0.5000046    0.00000       Uiso       1.00
       C34          C  0.9208472  0.4631428  0.5000046    0.00000       Uiso       1.00
       C35          C  0.5368589  0.4577053  0.5000046    0.00000       Uiso       1.00
       C36          C  0.5422965  0.0791545  0.5000046    0.00000       Uiso       1.00
       C37          C  0.0205830  0.5464647  0.5000046    0.00000       Uiso       1.00
       C38          C  0.4535370  0.4741192  0.5000046    0.00000       Uiso       1.00
       C39          C  0.5258825  0.9794187  0.5000046    0.00000       Uiso       1.00
        N1          N  0.9799122  0.4892035  0.5000046    0.00000       Uiso       1.00
        N2          N  0.5107983  0.4907096  0.5000046    0.00000       Uiso       1.00
        N3          N  0.5092921  0.0200895  0.5000046    0.00000       Uiso       1.00
        H1          H  0.2080895  0.7021649  0.5000046    0.00000       Uiso       1.00
        H2          H  0.2978368  0.5059255  0.5000046    0.00000       Uiso       1.00
        H3          H  0.4940763  0.7919122  0.5000046    0.00000       Uiso       1.00
        H4          H  0.8064087  0.3211097  0.5000046    0.00000       Uiso       1.00
        H5          H  0.6788920  0.4852998  0.5000046    0.00000       Uiso       1.00
        H6          H  0.5147019  0.1935930  0.5000046    0.00000       Uiso       1.00
        H7          H  0.6832663  0.1961025  0.5000046    0.00000       Uiso       1.00
        H8          H  0.8038992  0.4871647  0.5000046    0.00000       Uiso       1.00
        H9          H  0.5128371  0.3167354  0.5000046    0.00000       Uiso       1.00
       H10          H  0.3402935  0.8162606  0.5000046    0.00000       Uiso       1.00
       H11          H  0.1837410  0.5240337  0.5000046    0.00000       Uiso       1.00
       H12          H  0.4759680  0.6597081  0.5000046    0.00000       Uiso       1.00
       H13          H  0.1004262  0.6596199  0.5000046    0.00000       Uiso       1.00
       H14          H  0.3403818  0.4408072  0.5000046    0.00000       Uiso       1.00
       H15          H  0.5591945  0.8995755  0.5000046    0.00000       Uiso       1.00
       H16          H  0.4065060  0.9237710  0.5000046    0.00000       Uiso       1.00
       H17          H  0.0762307  0.4827359  0.5000046    0.00000       Uiso       1.00
       H18          H  0.5172658  0.5934957  0.5000046    0.00000       Uiso       1.00
       H19          H  0.0027889  0.5777950  0.5000046    0.00000       Uiso       1.00
       H20          H  0.4222067  0.4249947  0.5000046    0.00000       Uiso       1.00
       H21          H  0.5750070  0.9972128  0.5000046    0.00000       Uiso       1.00
       C40          C  0.6312016  0.5550151  0.5000046    0.00000       Uiso       1.00
       C41          C  0.6973591  0.5779260  0.5000046    0.00000       Uiso       1.00
       C42          C  0.6147923  0.5770822  0.8000425    0.00000       Uiso       1.00
       H22          H  0.6189319  0.5714747  0.2787759    0.00000       Uiso       1.00
       H23          H  0.7095171  0.5614873  0.7216760    0.00000       Uiso       1.00
       H24          H  0.7219101  0.6276661  0.5001520    0.00000       Uiso       1.00
       H25          H  0.7095824  0.5615260  0.2783882    0.00000       Uiso       1.00
       H26          H  0.6271363  0.5606868  1.0212190    0.00000       Uiso       1.00
       H27          H  0.5658035  0.5600947  0.8007852    0.00000       Uiso       1.00
       H28          H  0.6393138  0.6268214  0.8001226    0.00000       Uiso       1.00
       C43          C  0.4406607  0.3615849  0.5000046    0.00000       Uiso       1.00
       C44          C  0.4194089  0.2957570  0.5000046    0.00000       Uiso       1.00
       C45          C  0.4177727  0.3770749  0.1999667    0.00000       Uiso       1.00
       H29          H  0.4235879  0.3731685  0.7212334    0.00000       Uiso       1.00
       H30          H  0.4364571  0.2842830  0.2783333    0.00000       Uiso       1.00
       H31          H  0.3696761  0.2700835  0.4998573    0.00000       Uiso       1.00
       H32          H  0.4364198  0.2842174  0.7216211    0.00000       Uiso       1.00
       H33          H  0.4347827  0.3654163 -0.0212097    0.00000       Uiso       1.00
       H34          H  0.4335320  0.4258203  0.1992241    0.00000       Uiso       1.00
       H35          H  0.3680400  0.3514304  0.1998867    0.00000       Uiso       1.00
       C46          C  0.4449866  0.0761874  0.5000046    0.00000       Uiso       1.00
       C47          C  0.4220757  0.1194340  0.5000046    0.00000       Uiso       1.00
       C48          C  0.4229195  0.0377109  0.8000425    0.00000       Uiso       1.00
       H36          H  0.4285270  0.0474580  0.2787759    0.00000       Uiso       1.00
       H37          H  0.4385144  0.1480306  0.7216760    0.00000       Uiso       1.00
       H38          H  0.3723356  0.0942448  0.5001520    0.00000       Uiso       1.00
       H39          H  0.4384757  0.1480573  0.2783882    0.00000       Uiso       1.00
       H40          H  0.4393149  0.0664505  1.0212190    0.00000       Uiso       1.00
       H41          H  0.4399070  0.0057097  0.8007852    0.00000       Uiso       1.00
       H42          H  0.3731803  0.0124932  0.8001226    0.00000       Uiso       1.00
       C49          C  0.6384168  0.0790766  0.5000046    0.00000       Uiso       1.00
       C50          C  0.7042447  0.1236527  0.5000046    0.00000       Uiso       1.00
       C51          C  0.6229268  0.0406987  0.1999667    0.00000       Uiso       1.00
       H43          H  0.6268333  0.0504203  0.7212334    0.00000       Uiso       1.00
       H44          H  0.7157188  0.1521750  0.2783333    0.00000       Uiso       1.00
       H45          H  0.7299182  0.0995934  0.4998573    0.00000       Uiso       1.00
       H46          H  0.7157843  0.1522032  0.7216211    0.00000       Uiso       1.00
       H47          H  0.6345854  0.0693673 -0.0212097    0.00000       Uiso       1.00
       H48          H  0.5741814  0.0077126  0.1992241    0.00000       Uiso       1.00
       H49          H  0.6485713  0.0166105  0.1998867    0.00000       Uiso       1.00
       C52          C  0.9238143  0.3688000  0.5000046    0.00000       Uiso       1.00
       C53          C  0.8805678  0.3026426  0.5000046    0.00000       Uiso       1.00
       C54          C  0.9622908  0.3852094  0.8000425    0.00000       Uiso       1.00
       H50          H  0.9525437  0.3810698  0.2787759    0.00000       Uiso       1.00
       H51          H  0.8519711  0.2904846  0.7216760    0.00000       Uiso       1.00
       H52          H  0.9057570  0.2780917  0.5001520    0.00000       Uiso       1.00
       H53          H  0.8519444  0.2904193  0.2783882    0.00000       Uiso       1.00
       H54          H  0.9335513  0.3728653  1.0212190    0.00000       Uiso       1.00
       H55          H  0.9942921  0.4341982  0.8007852    0.00000       Uiso       1.00
       H56          H  0.9875085  0.3606879  0.8001226    0.00000       Uiso       1.00
       C55          C  0.9209251  0.5593411  0.5000046    0.00000       Uiso       1.00
       C56          C  0.8763490  0.5805928  0.5000046    0.00000       Uiso       1.00
       C57          C  0.9593030  0.5822290  0.1999667    0.00000       Uiso       1.00
       H57          H  0.9495814  0.5764138  0.7212334    0.00000       Uiso       1.00
       H58          H  0.8478267  0.5635446  0.2783333    0.00000       Uiso       1.00
       H59          H  0.9004083  0.6303256  0.4998573    0.00000       Uiso       1.00
       H60          H  0.8477985  0.5635819  0.7216211    0.00000       Uiso       1.00
       H61          H  0.9306344  0.5652190 -0.0212097    0.00000       Uiso       1.00
       H62          H  0.9922892  0.5664697  0.1992241    0.00000       Uiso       1.00
       H63          H  0.9833912  0.6319616  0.1998867    0.00000       Uiso       1.00
