data_LZU-301
_audit_creation_date              0000-00-00
_audit_creation_method            'LanYouShi'
_symmetry_space_group_name_H-M    'P1'
_cell_length_a                    24.0319996
_cell_length_b                    24.0319996
_cell_length_c                    8.4840002
_cell_angle_alpha                 90.0000000
_cell_angle_beta                  90.0000000
_cell_angle_gamma                 90.0000000
loop_
_atom_site_label
_atom_site_type_symbol
_atom_site_fract_x
_atom_site_fract_y
_atom_site_fract_z
_atom_site_U_iso_or_equiv
_atom_site_adp_type
_atom_site_occupancy
        N1          N  0.9565001  0.1490100  0.5167800    0.00000       Uiso       1.00
        N2          N  0.8674600  0.1838200  0.8462800    0.00000       Uiso       1.00
        C1          C  0.9836200  0.0472800  0.1135100    0.00000       Uiso       1.00
        C2          C  0.9335400  0.0428500  0.1994600    0.00000       Uiso       1.00
        C3          C  0.9226100  0.0776900  0.3271800    0.00000       Uiso       1.00
        C4          C  0.9619200  0.1175900  0.3739900    0.00000       Uiso       1.00
        C5          C  0.0111800  0.1230000  0.2883700    0.00000       Uiso       1.00
        C6          C  0.0223200  0.0882600  0.1604300    0.00000       Uiso       1.00
        C7          C  0.9116200  0.1548600  0.6008000    0.00000       Uiso       1.00
        C8          C  0.9134800  0.1838700  0.7529600    0.00000       Uiso       1.00
        C9          C  0.9622200  0.2097000  0.8061100    0.00000       Uiso       1.00
       C10          C  0.9627600  0.2355800  0.9528500    0.00000       Uiso       1.00
       C11          C  0.9147201  0.2359600  0.0470400    0.00000       Uiso       1.00
       C12          C  0.8669000  0.2088900  0.9899200    0.00000       Uiso       1.00
        H1          H  0.9041600  0.0099900  0.1731300    0.00000       Uiso       1.00
        H2          H  0.8850200  0.0706900  0.3936500    0.00000       Uiso       1.00
        H3          H  0.0422200  0.1527100  0.3261900    0.00000       Uiso       1.00
        H4          H  0.0628200  0.0914100  0.1053900    0.00000       Uiso       1.00
        H5          H  0.8722500  0.1375100  0.5641300    0.00000       Uiso       1.00
        H6          H  0.9993900  0.2100300  0.7341500    0.00000       Uiso       1.00
        H7          H  0.0004300  0.2561700  0.9908099    0.00000       Uiso       1.00
        H8          H  0.8293700  0.2068400  0.0601700    0.00000       Uiso       1.00
        N3          N  0.4565000  0.6490100  0.0167800    0.00000       Uiso       1.00
        N4          N  0.3674600  0.6838199  0.3462800    0.00000       Uiso       1.00
       C13          C  0.4836200  0.5472800  0.6135100    0.00000       Uiso       1.00
       C14          C  0.4335400  0.5428500  0.6994600    0.00000       Uiso       1.00
       C15          C  0.4226100  0.5776900  0.8271800    0.00000       Uiso       1.00
       C16          C  0.4619200  0.6175900  0.8739900    0.00000       Uiso       1.00
       C17          C  0.5111800  0.6230000  0.7883700    0.00000       Uiso       1.00
       C18          C  0.5223200  0.5882600  0.6604300    0.00000       Uiso       1.00
       C19          C  0.4116200  0.6548600  0.1008000    0.00000       Uiso       1.00
       C20          C  0.4134800  0.6838700  0.2529600    0.00000       Uiso       1.00
       C21          C  0.4622200  0.7097000  0.3061100    0.00000       Uiso       1.00
       C22          C  0.4627600  0.7355800  0.4528500    0.00000       Uiso       1.00
       C23          C  0.4147200  0.7359600  0.5470400    0.00000       Uiso       1.00
       C24          C  0.3669000  0.7088900  0.4899200    0.00000       Uiso       1.00
        H9          H  0.4041600  0.5099900  0.6731300    0.00000       Uiso       1.00
       H10          H  0.3850200  0.5706900  0.8936500    0.00000       Uiso       1.00
       H11          H  0.5422200  0.6527100  0.8261900    0.00000       Uiso       1.00
       H12          H  0.5628200  0.5914100  0.6053900    0.00000       Uiso       1.00
       H13          H  0.3722500  0.6375100  0.0641300    0.00000       Uiso       1.00
       H14          H  0.4993900  0.7100300  0.2341500    0.00000       Uiso       1.00
       H15          H  0.5004300  0.7561700  0.4908100    0.00000       Uiso       1.00
       H16          H  0.3293700  0.7068400  0.5601700    0.00000       Uiso       1.00
        N5          N  0.0435000  0.8509901  0.5167800    0.00000       Uiso       1.00
        N6          N  0.1325400  0.8161800  0.8462800    0.00000       Uiso       1.00
       C25          C  0.0163800  0.9527200  0.1135100    0.00000       Uiso       1.00
       C26          C  0.0664600  0.9571500  0.1994600    0.00000       Uiso       1.00
       C27          C  0.0773900  0.9223100  0.3271800    0.00000       Uiso       1.00
       C28          C  0.0380800  0.8824100  0.3739900    0.00000       Uiso       1.00
       C29          C  0.9888200  0.8770000  0.2883700    0.00000       Uiso       1.00
       C30          C  0.9776800  0.9117401  0.1604300    0.00000       Uiso       1.00
       C31          C  0.0883800  0.8451400  0.6008000    0.00000       Uiso       1.00
       C32          C  0.0865200  0.8161300  0.7529600    0.00000       Uiso       1.00
       C33          C  0.0377800  0.7903000  0.8061100    0.00000       Uiso       1.00
       C34          C  0.0372400  0.7644200  0.9528500    0.00000       Uiso       1.00
       C35          C  0.0852800  0.7640401  0.0470400    0.00000       Uiso       1.00
       C36          C  0.1331000  0.7911100  0.9899200    0.00000       Uiso       1.00
       H17          H  0.0958400  0.9900100  0.1731300    0.00000       Uiso       1.00
       H18          H  0.1149800  0.9293100  0.3936500    0.00000       Uiso       1.00
       H19          H  0.9577800  0.8472900  0.3261900    0.00000       Uiso       1.00
       H20          H  0.9371800  0.9085900  0.1053900    0.00000       Uiso       1.00
       H21          H  0.1277500  0.8624900  0.5641300    0.00000       Uiso       1.00
       H22          H  0.0006100  0.7899700  0.7341500    0.00000       Uiso       1.00
       H23          H  0.9995700  0.7438300  0.9908099    0.00000       Uiso       1.00
       H24          H  0.1706300  0.7931600  0.0601700    0.00000       Uiso       1.00
        N7          N  0.5435000  0.3509900  0.0167800    0.00000       Uiso       1.00
        N8          N  0.6325400  0.3161800  0.3462800    0.00000       Uiso       1.00
       C37          C  0.5163800  0.4527200  0.6135100    0.00000       Uiso       1.00
       C38          C  0.5664600  0.4571500  0.6994600    0.00000       Uiso       1.00
       C39          C  0.5773900  0.4223100  0.8271800    0.00000       Uiso       1.00
       C40          C  0.5380800  0.3824100  0.8739900    0.00000       Uiso       1.00
       C41          C  0.4888200  0.3770000  0.7883700    0.00000       Uiso       1.00
       C42          C  0.4776800  0.4117400  0.6604300    0.00000       Uiso       1.00
       C43          C  0.5883800  0.3451400  0.1008000    0.00000       Uiso       1.00
       C44          C  0.5865200  0.3161300  0.2529600    0.00000       Uiso       1.00
       C45          C  0.5377800  0.2903000  0.3061100    0.00000       Uiso       1.00
       C46          C  0.5372400  0.2644200  0.4528500    0.00000       Uiso       1.00
       C47          C  0.5852800  0.2640400  0.5470400    0.00000       Uiso       1.00
       C48          C  0.6331000  0.2911100  0.4899200    0.00000       Uiso       1.00
       H25          H  0.5958400  0.4900100  0.6731300    0.00000       Uiso       1.00
       H26          H  0.6149800  0.4293100  0.8936500    0.00000       Uiso       1.00
       H27          H  0.4577800  0.3472900  0.8261900    0.00000       Uiso       1.00
       H28          H  0.4371800  0.4085900  0.6053900    0.00000       Uiso       1.00
       H29          H  0.6277500  0.3624900  0.0641300    0.00000       Uiso       1.00
       H30          H  0.5006100  0.2899700  0.2341500    0.00000       Uiso       1.00
       H31          H  0.4995700  0.2438300  0.4908100    0.00000       Uiso       1.00
       H32          H  0.6706300  0.2931600  0.5601700    0.00000       Uiso       1.00
        N9          N  0.1490100  0.0435000  0.4832200    0.00000       Uiso       1.00
       N10          N  0.1838200  0.1325400  0.1537200    0.00000       Uiso       1.00
       C49          C  0.0472800  0.0163800  0.8864900    0.00000       Uiso       1.00
       C50          C  0.0428500  0.0664600  0.8005400    0.00000       Uiso       1.00
       C51          C  0.0776900  0.0773900  0.6728200    0.00000       Uiso       1.00
       C52          C  0.1175900  0.0380800  0.6260100    0.00000       Uiso       1.00
       C53          C  0.1230000  0.9888200  0.7116300    0.00000       Uiso       1.00
       C54          C  0.0882600  0.9776800  0.8395700    0.00000       Uiso       1.00
       C55          C  0.1548600  0.0883800  0.3992000    0.00000       Uiso       1.00
       C56          C  0.1838700  0.0865200  0.2470400    0.00000       Uiso       1.00
       C57          C  0.2097000  0.0377800  0.1938900    0.00000       Uiso       1.00
       C58          C  0.2355800  0.0372400  0.0471500    0.00000       Uiso       1.00
       C59          C  0.2359600  0.0852800  0.9529600    0.00000       Uiso       1.00
       C60          C  0.2088900  0.1331000  0.0100800    0.00000       Uiso       1.00
       H33          H  0.0099900  0.0958400  0.8268700    0.00000       Uiso       1.00
       H34          H  0.0706900  0.1149800  0.6063499    0.00000       Uiso       1.00
       H35          H  0.1527100  0.9577800  0.6738100    0.00000       Uiso       1.00
       H36          H  0.0914100  0.9371800  0.8946100    0.00000       Uiso       1.00
       H37          H  0.1375100  0.1277500  0.4358700    0.00000       Uiso       1.00
       H38          H  0.2100300  0.0006100  0.2658500    0.00000       Uiso       1.00
       H39          H  0.2561700  0.9995700  0.0091900    0.00000       Uiso       1.00
       H40          H  0.2068400  0.1706300  0.9398300    0.00000       Uiso       1.00
       N11          N  0.6490100  0.5435000  0.9832200    0.00000       Uiso       1.00
       N12          N  0.6838199  0.6325400  0.6537200    0.00000       Uiso       1.00
       C61          C  0.5472800  0.5163800  0.3864900    0.00000       Uiso       1.00
       C62          C  0.5428500  0.5664600  0.3005400    0.00000       Uiso       1.00
       C63          C  0.5776900  0.5773900  0.1728200    0.00000       Uiso       1.00
       C64          C  0.6175900  0.5380800  0.1260100    0.00000       Uiso       1.00
       C65          C  0.6230000  0.4888200  0.2116300    0.00000       Uiso       1.00
       C66          C  0.5882600  0.4776800  0.3395700    0.00000       Uiso       1.00
       C67          C  0.6548600  0.5883800  0.8992000    0.00000       Uiso       1.00
       C68          C  0.6838700  0.5865200  0.7470400    0.00000       Uiso       1.00
       C69          C  0.7097000  0.5377800  0.6938900    0.00000       Uiso       1.00
       C70          C  0.7355800  0.5372400  0.5471500    0.00000       Uiso       1.00
       C71          C  0.7359600  0.5852800  0.4529600    0.00000       Uiso       1.00
       C72          C  0.7088900  0.6331000  0.5100800    0.00000       Uiso       1.00
       H41          H  0.5099900  0.5958400  0.3268700    0.00000       Uiso       1.00
       H42          H  0.5706900  0.6149800  0.1063500    0.00000       Uiso       1.00
       H43          H  0.6527100  0.4577800  0.1738100    0.00000       Uiso       1.00
       H44          H  0.5914100  0.4371800  0.3946100    0.00000       Uiso       1.00
       H45          H  0.6375100  0.6277500  0.9358699    0.00000       Uiso       1.00
       H46          H  0.7100300  0.5006100  0.7658499    0.00000       Uiso       1.00
       H47          H  0.7561700  0.4995700  0.5091900    0.00000       Uiso       1.00
       H48          H  0.7068400  0.6706300  0.4398300    0.00000       Uiso       1.00
       N13          N  0.8509901  0.9565001  0.4832200    0.00000       Uiso       1.00
       N14          N  0.8161800  0.8674600  0.1537200    0.00000       Uiso       1.00
       C73          C  0.9527200  0.9836200  0.8864900    0.00000       Uiso       1.00
       C74          C  0.9571500  0.9335400  0.8005400    0.00000       Uiso       1.00
       C75          C  0.9223100  0.9226100  0.6728200    0.00000       Uiso       1.00
       C76          C  0.8824100  0.9619200  0.6260100    0.00000       Uiso       1.00
       C77          C  0.8770000  0.0111800  0.7116300    0.00000       Uiso       1.00
       C78          C  0.9117401  0.0223200  0.8395700    0.00000       Uiso       1.00
       C79          C  0.8451400  0.9116200  0.3992000    0.00000       Uiso       1.00
       C80          C  0.8161300  0.9134800  0.2470400    0.00000       Uiso       1.00
       C81          C  0.7903000  0.9622200  0.1938900    0.00000       Uiso       1.00
       C82          C  0.7644200  0.9627600  0.0471500    0.00000       Uiso       1.00
       C83          C  0.7640401  0.9147201  0.9529600    0.00000       Uiso       1.00
       C84          C  0.7911100  0.8669000  0.0100800    0.00000       Uiso       1.00
       H49          H  0.9900100  0.9041600  0.8268700    0.00000       Uiso       1.00
       H50          H  0.9293100  0.8850200  0.6063499    0.00000       Uiso       1.00
       H51          H  0.8472900  0.0422200  0.6738100    0.00000       Uiso       1.00
       H52          H  0.9085900  0.0628200  0.8946100    0.00000       Uiso       1.00
       H53          H  0.8624900  0.8722500  0.4358700    0.00000       Uiso       1.00
       H54          H  0.7899700  0.9993900  0.2658500    0.00000       Uiso       1.00
       H55          H  0.7438300  0.0004300  0.0091900    0.00000       Uiso       1.00
       H56          H  0.7931600  0.8293700  0.9398300    0.00000       Uiso       1.00
       N15          N  0.3509900  0.4565000  0.9832200    0.00000       Uiso       1.00
       N16          N  0.3161800  0.3674600  0.6537200    0.00000       Uiso       1.00
       C85          C  0.4527200  0.4836200  0.3864900    0.00000       Uiso       1.00
       C86          C  0.4571500  0.4335400  0.3005400    0.00000       Uiso       1.00
       C87          C  0.4223100  0.4226100  0.1728200    0.00000       Uiso       1.00
       C88          C  0.3824100  0.4619200  0.1260100    0.00000       Uiso       1.00
       C89          C  0.3770000  0.5111800  0.2116300    0.00000       Uiso       1.00
       C90          C  0.4117400  0.5223200  0.3395700    0.00000       Uiso       1.00
       C91          C  0.3451400  0.4116200  0.8992000    0.00000       Uiso       1.00
       C92          C  0.3161300  0.4134800  0.7470400    0.00000       Uiso       1.00
       C93          C  0.2903000  0.4622200  0.6938900    0.00000       Uiso       1.00
       C94          C  0.2644200  0.4627600  0.5471500    0.00000       Uiso       1.00
       C95          C  0.2640400  0.4147200  0.4529600    0.00000       Uiso       1.00
       C96          C  0.2911100  0.3669000  0.5100800    0.00000       Uiso       1.00
       H57          H  0.4900100  0.4041600  0.3268700    0.00000       Uiso       1.00
       H58          H  0.4293100  0.3850200  0.1063500    0.00000       Uiso       1.00
       H59          H  0.3472900  0.5422200  0.1738100    0.00000       Uiso       1.00
       H60          H  0.4085900  0.5628200  0.3946100    0.00000       Uiso       1.00
       H61          H  0.3624900  0.3722500  0.9358699    0.00000       Uiso       1.00
       H62          H  0.2899700  0.4993900  0.7658499    0.00000       Uiso       1.00
       H63          H  0.2438300  0.5004300  0.5091900    0.00000       Uiso       1.00
       H64          H  0.2931600  0.3293700  0.4398300    0.00000       Uiso       1.00
       N17          N  0.5435000  0.1490100  0.2332200    0.00000       Uiso       1.00
       N18          N  0.6325400  0.1838200  0.9037200    0.00000       Uiso       1.00
       C97          C  0.5163800  0.0472800  0.6364900    0.00000       Uiso       1.00
       C98          C  0.5664600  0.0428500  0.5505400    0.00000       Uiso       1.00
       C99          C  0.5773900  0.0776900  0.4228200    0.00000       Uiso       1.00
      C100          C  0.5380800  0.1175900  0.3760100    0.00000       Uiso       1.00
      C101          C  0.4888200  0.1230000  0.4616300    0.00000       Uiso       1.00
      C102          C  0.4776800  0.0882600  0.5895700    0.00000       Uiso       1.00
      C103          C  0.5883800  0.1548600  0.1492000    0.00000       Uiso       1.00
      C104          C  0.5865200  0.1838700  0.9970400    0.00000       Uiso       1.00
      C105          C  0.5377800  0.2097000  0.9438900    0.00000       Uiso       1.00
      C106          C  0.5372400  0.2355800  0.7971500    0.00000       Uiso       1.00
      C107          C  0.5852800  0.2359600  0.7029600    0.00000       Uiso       1.00
      C108          C  0.6331000  0.2088900  0.7600800    0.00000       Uiso       1.00
       H65          H  0.5958400  0.0099900  0.5768700    0.00000       Uiso       1.00
       H66          H  0.6149800  0.0706900  0.3563500    0.00000       Uiso       1.00
       H67          H  0.4577800  0.1527100  0.4238100    0.00000       Uiso       1.00
       H68          H  0.4371800  0.0914100  0.6446100    0.00000       Uiso       1.00
       H69          H  0.6277500  0.1375100  0.1858700    0.00000       Uiso       1.00
       H70          H  0.5006100  0.2100300  0.0158500    0.00000       Uiso       1.00
       H71          H  0.4995700  0.2561700  0.7591900    0.00000       Uiso       1.00
       H72          H  0.6706300  0.2068400  0.6898299    0.00000       Uiso       1.00
       N19          N  0.0435000  0.6490100  0.7332200    0.00000       Uiso       1.00
       N20          N  0.1325400  0.6838199  0.4037200    0.00000       Uiso       1.00
      C109          C  0.0163800  0.5472800  0.1364900    0.00000       Uiso       1.00
      C110          C  0.0664600  0.5428500  0.0505400    0.00000       Uiso       1.00
      C111          C  0.0773900  0.5776900  0.9228200    0.00000       Uiso       1.00
      C112          C  0.0380800  0.6175900  0.8760100    0.00000       Uiso       1.00
      C113          C  0.9888200  0.6230000  0.9616300    0.00000       Uiso       1.00
      C114          C  0.9776800  0.5882600  0.0895700    0.00000       Uiso       1.00
      C115          C  0.0883800  0.6548600  0.6492000    0.00000       Uiso       1.00
      C116          C  0.0865200  0.6838700  0.4970400    0.00000       Uiso       1.00
      C117          C  0.0377800  0.7097000  0.4438900    0.00000       Uiso       1.00
      C118          C  0.0372400  0.7355800  0.2971500    0.00000       Uiso       1.00
      C119          C  0.0852800  0.7359600  0.2029600    0.00000       Uiso       1.00
      C120          C  0.1331000  0.7088900  0.2600800    0.00000       Uiso       1.00
       H73          H  0.0958400  0.5099900  0.0768700    0.00000       Uiso       1.00
       H74          H  0.1149800  0.5706900  0.8563500    0.00000       Uiso       1.00
       H75          H  0.9577800  0.6527100  0.9238100    0.00000       Uiso       1.00
       H76          H  0.9371800  0.5914100  0.1446100    0.00000       Uiso       1.00
       H77          H  0.1277500  0.6375100  0.6858700    0.00000       Uiso       1.00
       H78          H  0.0006100  0.7100300  0.5158500    0.00000       Uiso       1.00
       H79          H  0.9995700  0.7561700  0.2591900    0.00000       Uiso       1.00
       H80          H  0.1706300  0.7068400  0.1898300    0.00000       Uiso       1.00
       N21          N  0.4565000  0.8509901  0.2332200    0.00000       Uiso       1.00
       N22          N  0.3674600  0.8161800  0.9037200    0.00000       Uiso       1.00
      C121          C  0.4836200  0.9527200  0.6364900    0.00000       Uiso       1.00
      C122          C  0.4335400  0.9571500  0.5505400    0.00000       Uiso       1.00
      C123          C  0.4226100  0.9223100  0.4228200    0.00000       Uiso       1.00
      C124          C  0.4619200  0.8824100  0.3760100    0.00000       Uiso       1.00
      C125          C  0.5111800  0.8770000  0.4616300    0.00000       Uiso       1.00
      C126          C  0.5223200  0.9117401  0.5895700    0.00000       Uiso       1.00
      C127          C  0.4116200  0.8451400  0.1492000    0.00000       Uiso       1.00
      C128          C  0.4134800  0.8161300  0.9970400    0.00000       Uiso       1.00
      C129          C  0.4622200  0.7903000  0.9438900    0.00000       Uiso       1.00
      C130          C  0.4627600  0.7644200  0.7971500    0.00000       Uiso       1.00
      C131          C  0.4147200  0.7640401  0.7029600    0.00000       Uiso       1.00
      C132          C  0.3669000  0.7911100  0.7600800    0.00000       Uiso       1.00
       H81          H  0.4041600  0.9900100  0.5768700    0.00000       Uiso       1.00
       H82          H  0.3850200  0.9293100  0.3563500    0.00000       Uiso       1.00
       H83          H  0.5422200  0.8472900  0.4238100    0.00000       Uiso       1.00
       H84          H  0.5628200  0.9085900  0.6446100    0.00000       Uiso       1.00
       H85          H  0.3722500  0.8624900  0.1858700    0.00000       Uiso       1.00
       H86          H  0.4993900  0.7899700  0.0158500    0.00000       Uiso       1.00
       H87          H  0.5004300  0.7438300  0.7591900    0.00000       Uiso       1.00
       H88          H  0.3293700  0.7931600  0.6898299    0.00000       Uiso       1.00
       N23          N  0.9565001  0.3509900  0.7332200    0.00000       Uiso       1.00
       N24          N  0.8674600  0.3161800  0.4037200    0.00000       Uiso       1.00
      C133          C  0.9836200  0.4527200  0.1364900    0.00000       Uiso       1.00
      C134          C  0.9335400  0.4571500  0.0505400    0.00000       Uiso       1.00
      C135          C  0.9226100  0.4223100  0.9228200    0.00000       Uiso       1.00
      C136          C  0.9619200  0.3824100  0.8760100    0.00000       Uiso       1.00
      C137          C  0.0111800  0.3770000  0.9616300    0.00000       Uiso       1.00
      C138          C  0.0223200  0.4117400  0.0895700    0.00000       Uiso       1.00
      C139          C  0.9116200  0.3451400  0.6492000    0.00000       Uiso       1.00
      C140          C  0.9134800  0.3161300  0.4970400    0.00000       Uiso       1.00
      C141          C  0.9622200  0.2903000  0.4438900    0.00000       Uiso       1.00
      C142          C  0.9627600  0.2644200  0.2971500    0.00000       Uiso       1.00
      C143          C  0.9147201  0.2640400  0.2029600    0.00000       Uiso       1.00
      C144          C  0.8669000  0.2911100  0.2600800    0.00000       Uiso       1.00
       H89          H  0.9041600  0.4900100  0.0768700    0.00000       Uiso       1.00
       H90          H  0.8850200  0.4293100  0.8563500    0.00000       Uiso       1.00
       H91          H  0.0422200  0.3472900  0.9238100    0.00000       Uiso       1.00
       H92          H  0.0628200  0.4085900  0.1446100    0.00000       Uiso       1.00
       H93          H  0.8722500  0.3624900  0.6858700    0.00000       Uiso       1.00
       H94          H  0.9993900  0.2899700  0.5158500    0.00000       Uiso       1.00
       H95          H  0.0004300  0.2438300  0.2591900    0.00000       Uiso       1.00
       H96          H  0.8293700  0.2931600  0.1898300    0.00000       Uiso       1.00
       N25          N  0.3509900  0.0435000  0.2667800    0.00000       Uiso       1.00
       N26          N  0.3161800  0.1325400  0.5962800    0.00000       Uiso       1.00
      C145          C  0.4527200  0.0163800  0.8635100    0.00000       Uiso       1.00
      C146          C  0.4571500  0.0664600  0.9494600    0.00000       Uiso       1.00
      C147          C  0.4223100  0.0773900  0.0771800    0.00000       Uiso       1.00
      C148          C  0.3824100  0.0380800  0.1239900    0.00000       Uiso       1.00
      C149          C  0.3770000  0.9888200  0.0383700    0.00000       Uiso       1.00
      C150          C  0.4117400  0.9776800  0.9104300    0.00000       Uiso       1.00
      C151          C  0.3451400  0.0883800  0.3508000    0.00000       Uiso       1.00
      C152          C  0.3161300  0.0865200  0.5029600    0.00000       Uiso       1.00
      C153          C  0.2903000  0.0377800  0.5561100    0.00000       Uiso       1.00
      C154          C  0.2644200  0.0372400  0.7028500    0.00000       Uiso       1.00
      C155          C  0.2640400  0.0852800  0.7970400    0.00000       Uiso       1.00
      C156          C  0.2911100  0.1331000  0.7399200    0.00000       Uiso       1.00
       H97          H  0.4900100  0.0958400  0.9231300    0.00000       Uiso       1.00
       H98          H  0.4293100  0.1149800  0.1436500    0.00000       Uiso       1.00
       H99          H  0.3472900  0.9577800  0.0761900    0.00000       Uiso       1.00
      H100          H  0.4085900  0.9371800  0.8553900    0.00000       Uiso       1.00
      H101          H  0.3624900  0.1277500  0.3141300    0.00000       Uiso       1.00
      H102          H  0.2899700  0.0006100  0.4841500    0.00000       Uiso       1.00
      H103          H  0.2438300  0.9995700  0.7408100    0.00000       Uiso       1.00
      H104          H  0.2931600  0.1706300  0.8101700    0.00000       Uiso       1.00
       N27          N  0.8509901  0.5435000  0.7667800    0.00000       Uiso       1.00
       N28          N  0.8161800  0.6325400  0.0962800    0.00000       Uiso       1.00
      C157          C  0.9527200  0.5163800  0.3635100    0.00000       Uiso       1.00
      C158          C  0.9571500  0.5664600  0.4494600    0.00000       Uiso       1.00
      C159          C  0.9223100  0.5773900  0.5771800    0.00000       Uiso       1.00
      C160          C  0.8824100  0.5380800  0.6239899    0.00000       Uiso       1.00
      C161          C  0.8770000  0.4888200  0.5383700    0.00000       Uiso       1.00
      C162          C  0.9117401  0.4776800  0.4104300    0.00000       Uiso       1.00
      C163          C  0.8451400  0.5883800  0.8508000    0.00000       Uiso       1.00
      C164          C  0.8161300  0.5865200  0.0029600    0.00000       Uiso       1.00
      C165          C  0.7903000  0.5377800  0.0561100    0.00000       Uiso       1.00
      C166          C  0.7644200  0.5372400  0.2028500    0.00000       Uiso       1.00
      C167          C  0.7640401  0.5852800  0.2970400    0.00000       Uiso       1.00
      C168          C  0.7911100  0.6331000  0.2399200    0.00000       Uiso       1.00
      H105          H  0.9900100  0.5958400  0.4231300    0.00000       Uiso       1.00
      H106          H  0.9293100  0.6149800  0.6436500    0.00000       Uiso       1.00
      H107          H  0.8472900  0.4577800  0.5761900    0.00000       Uiso       1.00
      H108          H  0.9085900  0.4371800  0.3553900    0.00000       Uiso       1.00
      H109          H  0.8624900  0.6277500  0.8141299    0.00000       Uiso       1.00
      H110          H  0.7899700  0.5006100  0.9841499    0.00000       Uiso       1.00
      H111          H  0.7438300  0.4995700  0.2408100    0.00000       Uiso       1.00
      H112          H  0.7931600  0.6706300  0.3101700    0.00000       Uiso       1.00
       N29          N  0.6490100  0.9565001  0.2667800    0.00000       Uiso       1.00
       N30          N  0.6838199  0.8674600  0.5962800    0.00000       Uiso       1.00
      C169          C  0.5472800  0.9836200  0.8635100    0.00000       Uiso       1.00
      C170          C  0.5428500  0.9335400  0.9494600    0.00000       Uiso       1.00
      C171          C  0.5776900  0.9226100  0.0771800    0.00000       Uiso       1.00
      C172          C  0.6175900  0.9619200  0.1239900    0.00000       Uiso       1.00
      C173          C  0.6230000  0.0111800  0.0383700    0.00000       Uiso       1.00
      C174          C  0.5882600  0.0223200  0.9104300    0.00000       Uiso       1.00
      C175          C  0.6548600  0.9116200  0.3508000    0.00000       Uiso       1.00
      C176          C  0.6838700  0.9134800  0.5029600    0.00000       Uiso       1.00
      C177          C  0.7097000  0.9622200  0.5561100    0.00000       Uiso       1.00
      C178          C  0.7355800  0.9627600  0.7028500    0.00000       Uiso       1.00
      C179          C  0.7359600  0.9147201  0.7970400    0.00000       Uiso       1.00
      C180          C  0.7088900  0.8669000  0.7399200    0.00000       Uiso       1.00
      H113          H  0.5099900  0.9041600  0.9231300    0.00000       Uiso       1.00
      H114          H  0.5706900  0.8850200  0.1436500    0.00000       Uiso       1.00
      H115          H  0.6527100  0.0422200  0.0761900    0.00000       Uiso       1.00
      H116          H  0.5914100  0.0628200  0.8553900    0.00000       Uiso       1.00
      H117          H  0.6375100  0.8722500  0.3141300    0.00000       Uiso       1.00
      H118          H  0.7100300  0.9993900  0.4841500    0.00000       Uiso       1.00
      H119          H  0.7561700  0.0004300  0.7408100    0.00000       Uiso       1.00
      H120          H  0.7068400  0.8293700  0.8101700    0.00000       Uiso       1.00
       N31          N  0.1490100  0.4565000  0.7667800    0.00000       Uiso       1.00
       N32          N  0.1838200  0.3674600  0.0962800    0.00000       Uiso       1.00
      C181          C  0.0472800  0.4836200  0.3635100    0.00000       Uiso       1.00
      C182          C  0.0428500  0.4335400  0.4494600    0.00000       Uiso       1.00
      C183          C  0.0776900  0.4226100  0.5771800    0.00000       Uiso       1.00
      C184          C  0.1175900  0.4619200  0.6239899    0.00000       Uiso       1.00
      C185          C  0.1230000  0.5111800  0.5383700    0.00000       Uiso       1.00
      C186          C  0.0882600  0.5223200  0.4104300    0.00000       Uiso       1.00
      C187          C  0.1548600  0.4116200  0.8508000    0.00000       Uiso       1.00
      C188          C  0.1838700  0.4134800  0.0029600    0.00000       Uiso       1.00
      C189          C  0.2097000  0.4622200  0.0561100    0.00000       Uiso       1.00
      C190          C  0.2355800  0.4627600  0.2028500    0.00000       Uiso       1.00
      C191          C  0.2359600  0.4147200  0.2970400    0.00000       Uiso       1.00
      C192          C  0.2088900  0.3669000  0.2399200    0.00000       Uiso       1.00
      H121          H  0.0099900  0.4041600  0.4231300    0.00000       Uiso       1.00
      H122          H  0.0706900  0.3850200  0.6436500    0.00000       Uiso       1.00
      H123          H  0.1527100  0.5422200  0.5761900    0.00000       Uiso       1.00
      H124          H  0.0914100  0.5628200  0.3553900    0.00000       Uiso       1.00
      H125          H  0.1375100  0.3722500  0.8141299    0.00000       Uiso       1.00
      H126          H  0.2100300  0.4993900  0.9841499    0.00000       Uiso       1.00
      H127          H  0.2561700  0.5004300  0.2408100    0.00000       Uiso       1.00
      H128          H  0.2068400  0.3293700  0.3101700    0.00000       Uiso       1.00
      C193          C  0.0000000  0.0000000  0.0000000    0.00000       Uiso       1.00
      C194          C  0.5000000  0.5000000  0.5000000    0.00000       Uiso       1.00
      C195          C  0.5000000  0.0000000  0.7500000    0.00000       Uiso       1.00
      C196          C  0.0000000  0.5000000  0.2500000    0.00000       Uiso       1.00
