data_LZU-72
_audit_creation_date              0000-00-00
_audit_creation_method            'LanYouShi'
_symmetry_space_group_name_H-M    'P1'
_cell_length_a                    37.4333992
_cell_length_b                    37.4333992
_cell_length_c                    3.9433000
_cell_angle_alpha                 90.0000000
_cell_angle_beta                  90.0000000
_cell_angle_gamma                 120.0000000
loop_
_atom_site_label
_atom_site_type_symbol
_atom_site_fract_x
_atom_site_fract_y
_atom_site_fract_z
_atom_site_U_iso_or_equiv
_atom_site_adp_type
_atom_site_occupancy
        C1          C  0.3121600  0.1282300  0.7298600    0.00000       Uiso       1.00
        C2          C  0.3551600  0.1477300  0.7803400    0.00000       Uiso       1.00
        C3          C  0.3772700  0.1881400  0.9127200    0.00000       Uiso       1.00
        C4          C  0.3545400  0.2075500  0.9890000    0.00000       Uiso       1.00
        C5          C  0.3129500  0.1887900  0.9380100    0.00000       Uiso       1.00
        C6          C  0.2901300  0.1486300  0.8103600    0.00000       Uiso       1.00
        C7          C  0.2446900  0.1277500  0.7705899    0.00000       Uiso       1.00
        C8          C  0.4224700  0.2087800  0.9628700    0.00000       Uiso       1.00
        C9          C  0.2256300  0.1489600  0.6394300    0.00000       Uiso       1.00
       C10          C  0.1827800  0.1292100  0.6074700    0.00000       Uiso       1.00
       C11          C  0.1581300  0.0879300  0.7035800    0.00000       Uiso       1.00
       C12          C  0.1770500  0.0666600  0.8381900    0.00000       Uiso       1.00
       C13          C  0.2199300  0.0863900  0.8695400    0.00000       Uiso       1.00
       C14          C  0.4404100  0.1873500  1.1105100    0.00000       Uiso       1.00
       C15          C  0.4831500  0.2064100  1.1494200    0.00000       Uiso       1.00
       C16          C  0.5087300  0.2471600  1.0435200    0.00000       Uiso       1.00
       C17          C  0.4908900  0.2685400  0.8911800    0.00000       Uiso       1.00
       C18          C  0.4481500  0.2494500  0.8517600    0.00000       Uiso       1.00
        N1          N  0.1141400  0.0695100  0.6763700    0.00000       Uiso       1.00
        N2          N  0.5525700  0.2648700  1.0772201    0.00000       Uiso       1.00
        N3          N  0.3678700  0.2464600  1.1416301    0.00000       Uiso       1.00
       C19          C  0.3304300  0.2479400  1.1646800    0.00000       Uiso       1.00
        N4          N  0.2980500  0.2149900  1.0513999    0.00000       Uiso       1.00
       C20          C  0.3289600  0.2845500  1.3052000    0.00000       Uiso       1.00
        N5          N  0.3626500  0.3228500  1.1657500    0.00000       Uiso       1.00
       C21          C  0.3472300  0.3517400  1.1306400    0.00000       Uiso       1.00
       C22          C  0.3015000  0.3292500  1.2192600    0.00000       Uiso       1.00
       C23          C  0.2889700  0.2842100  1.2256099    0.00000       Uiso       1.00
       C24          C  0.0876600  0.0302200  0.6732200    0.00000       Uiso       1.00
       C25          C  0.5794600  0.3040500  1.0789499    0.00000       Uiso       1.00
       C26          C  0.0429200  0.0150700  0.6608700    0.00000       Uiso       1.00
       C27          C  0.6240700  0.3186400  1.0947300    0.00000       Uiso       1.00
       C28          C  0.0275300  0.0424700  0.6601400    0.00000       Uiso       1.00
       C29          C  0.6522100  0.3611500  1.0956500    0.00000       Uiso       1.00
        H1          H  0.2962600  0.0973600  0.6252900    0.00000       Uiso       1.00
        H2          H  0.3711200  0.1313500  0.7124900    0.00000       Uiso       1.00
        H3          H  0.2437800  0.1807600  0.5596400    0.00000       Uiso       1.00
        H4          H  0.1686600  0.1460900  0.5062300    0.00000       Uiso       1.00
        H5          H  0.1590300  0.0353000  0.9281700    0.00000       Uiso       1.00
        H6          H  0.2337000  0.0696000  0.9795200    0.00000       Uiso       1.00
        H7          H  0.4213200  0.1559100  1.1973000    0.00000       Uiso       1.00
        H8          H  0.4964500  0.1894100  1.2636501    0.00000       Uiso       1.00
        H9          H  0.5097100  0.2993900  0.7925500    0.00000       Uiso       1.00
       H10          H  0.4352600  0.2661800  0.7267700    0.00000       Uiso       1.00
       H11          H  0.3970300  0.2679400  1.2320300    0.00000       Uiso       1.00
       H12          H  0.3324900  0.2845800  1.5831699    0.00000       Uiso       1.00
       H13          H  0.3873900  0.3350400  1.3366600    0.00000       Uiso       1.00
       H14          H  0.3517600  0.3627000  0.8655200    0.00000       Uiso       1.00
       H15          H  0.3646500  0.3792600  1.2953401    0.00000       Uiso       1.00
       H16          H  0.2829900  0.3354800  1.0338999    0.00000       Uiso       1.00
       H17          H  0.2968900  0.3390100  1.4724100    0.00000       Uiso       1.00
       H18          H  0.2769700  0.2707200  0.9728100    0.00000       Uiso       1.00
       H19          H  0.2645000  0.2667000  1.4155200    0.00000       Uiso       1.00
       H20          H  0.0979200  0.0078500  0.6782300    0.00000       Uiso       1.00
       H21          H  0.5696100  0.3267300  1.0688300    0.00000       Uiso       1.00
       H22          H  0.0486500  0.0754600  0.6635000    0.00000       Uiso       1.00
       H23          H  0.6407501  0.3826000  1.0913299    0.00000       Uiso       1.00
       C30          C  0.8717700  0.1839300  0.7298600    0.00000       Uiso       1.00
       C31          C  0.8522700  0.2074300  0.7803400    0.00000       Uiso       1.00
       C32          C  0.8118600  0.1891300  0.9127200    0.00000       Uiso       1.00
       C33          C  0.7924500  0.1469900  0.9890000    0.00000       Uiso       1.00
       C34          C  0.8112100  0.1241600  0.9380100    0.00000       Uiso       1.00
       C35          C  0.8513700  0.1415000  0.8103600    0.00000       Uiso       1.00
       C36          C  0.8722500  0.1169400  0.7705899    0.00000       Uiso       1.00
       C37          C  0.7912200  0.2136900  0.9628700    0.00000       Uiso       1.00
       C38          C  0.8510400  0.0766700  0.6394300    0.00000       Uiso       1.00
       C39          C  0.8707900  0.0535700  0.6074700    0.00000       Uiso       1.00
       C40          C  0.9120700  0.0702000  0.7035800    0.00000       Uiso       1.00
       C41          C  0.9333400  0.1103900  0.8381900    0.00000       Uiso       1.00
       C42          C  0.9136100  0.1335400  0.8695400    0.00000       Uiso       1.00
       C43          C  0.8126500  0.2530600  1.1105100    0.00000       Uiso       1.00
       C44          C  0.7935900  0.2767400  1.1494200    0.00000       Uiso       1.00
       C45          C  0.7528400  0.2615700  1.0435200    0.00000       Uiso       1.00
       C46          C  0.7314600  0.2223500  0.8911800    0.00000       Uiso       1.00
       C47          C  0.7505500  0.1987000  0.8517600    0.00000       Uiso       1.00
        N6          N  0.9304900  0.0446300  0.6763700    0.00000       Uiso       1.00
        N7          N  0.7351300  0.2877000  1.0772201    0.00000       Uiso       1.00
        N8          N  0.7535400  0.1214100  1.1416301    0.00000       Uiso       1.00
       C48          C  0.7520601  0.0824900  1.1646800    0.00000       Uiso       1.00
        N9          N  0.7850100  0.0830600  1.0513999    0.00000       Uiso       1.00
       C49          C  0.7154500  0.0444100  1.3052000    0.00000       Uiso       1.00
       N10          N  0.6771500  0.0398000  1.1657500    0.00000       Uiso       1.00
       C50          C  0.6482600  0.9954900  1.1306400    0.00000       Uiso       1.00
       C51          C  0.6707500  0.9722500  1.2192600    0.00000       Uiso       1.00
       C52          C  0.7157900  0.0047600  1.2256099    0.00000       Uiso       1.00
       C53          C  0.9697800  0.0574400  0.6732200    0.00000       Uiso       1.00
       C54          C  0.6959500  0.2754100  1.0789499    0.00000       Uiso       1.00
       C55          C  0.9849300  0.0278500  0.6608700    0.00000       Uiso       1.00
       C56          C  0.6813601  0.3054300  1.0947300    0.00000       Uiso       1.00
       C57          C  0.9575300  0.9850600  0.6601400    0.00000       Uiso       1.00
       C58          C  0.6388500  0.2910600  1.0956500    0.00000       Uiso       1.00
       H24          H  0.9026400  0.1989000  0.6252900    0.00000       Uiso       1.00
       H25          H  0.8686500  0.2397700  0.7124900    0.00000       Uiso       1.00
       H26          H  0.8192400  0.0630200  0.5596400    0.00000       Uiso       1.00
       H27          H  0.8539100  0.0225700  0.5062300    0.00000       Uiso       1.00
       H28          H  0.9647000  0.1237300  0.9281700    0.00000       Uiso       1.00
       H29          H  0.9304000  0.1641000  0.9795200    0.00000       Uiso       1.00
       H30          H  0.8440900  0.2654100  1.1973000    0.00000       Uiso       1.00
       H31          H  0.8105900  0.3070400  1.2636501    0.00000       Uiso       1.00
       H32          H  0.7006100  0.2103200  0.7925500    0.00000       Uiso       1.00
       H33          H  0.7338200  0.1690800  0.7267700    0.00000       Uiso       1.00
       H34          H  0.7320600  0.1290900  1.2320300    0.00000       Uiso       1.00
       H35          H  0.7154200  0.0479100  1.5831699    0.00000       Uiso       1.00
       H36          H  0.6649600  0.0523500  1.3366600    0.00000       Uiso       1.00
       H37          H  0.6373000  0.9890600  0.8655200    0.00000       Uiso       1.00
       H38          H  0.6207400  0.9853901  1.2953401    0.00000       Uiso       1.00
       H39          H  0.6645200  0.9475100  1.0338999    0.00000       Uiso       1.00
       H40          H  0.6609901  0.9578800  1.4724100    0.00000       Uiso       1.00
       H41          H  0.7292801  0.0062500  0.9728100    0.00000       Uiso       1.00
       H42          H  0.7333000  0.9978000  1.4155200    0.00000       Uiso       1.00
       H43          H  0.9921501  0.0900700  0.6782300    0.00000       Uiso       1.00
       H44          H  0.6732700  0.2428800  1.0688300    0.00000       Uiso       1.00
       H45          H  0.9245400  0.9731900  0.6635000    0.00000       Uiso       1.00
       H46          H  0.6174000  0.2581500  1.0913299    0.00000       Uiso       1.00
       C59          C  0.8160700  0.6878400  0.7298600    0.00000       Uiso       1.00
       C60          C  0.7925701  0.6448400  0.7803400    0.00000       Uiso       1.00
       C61          C  0.8108700  0.6227300  0.9127200    0.00000       Uiso       1.00
       C62          C  0.8530100  0.6454600  0.9890000    0.00000       Uiso       1.00
       C63          C  0.8758400  0.6870500  0.9380100    0.00000       Uiso       1.00
       C64          C  0.8585000  0.7098700  0.8103600    0.00000       Uiso       1.00
       C65          C  0.8830600  0.7553100  0.7705899    0.00000       Uiso       1.00
       C66          C  0.7863100  0.5775300  0.9628700    0.00000       Uiso       1.00
       C67          C  0.9233301  0.7743700  0.6394300    0.00000       Uiso       1.00
       C68          C  0.9464300  0.8172200  0.6074700    0.00000       Uiso       1.00
       C69          C  0.9298000  0.8418700  0.7035800    0.00000       Uiso       1.00
       C70          C  0.8896100  0.8229500  0.8381900    0.00000       Uiso       1.00
       C71          C  0.8664600  0.7800700  0.8695400    0.00000       Uiso       1.00
       C72          C  0.7469400  0.5595900  1.1105100    0.00000       Uiso       1.00
       C73          C  0.7232600  0.5168501  1.1494200    0.00000       Uiso       1.00
       C74          C  0.7384300  0.4912700  1.0435200    0.00000       Uiso       1.00
       C75          C  0.7776501  0.5091100  0.8911800    0.00000       Uiso       1.00
       C76          C  0.8013000  0.5518500  0.8517600    0.00000       Uiso       1.00
       N11          N  0.9553700  0.8858600  0.6763700    0.00000       Uiso       1.00
       N12          N  0.7123000  0.4474300  1.0772201    0.00000       Uiso       1.00
       N13          N  0.8785900  0.6321300  1.1416301    0.00000       Uiso       1.00
       C77          C  0.9175100  0.6695700  1.1646800    0.00000       Uiso       1.00
       N14          N  0.9169400  0.7019500  1.0513999    0.00000       Uiso       1.00
       C78          C  0.9555900  0.6710400  1.3052000    0.00000       Uiso       1.00
       N15          N  0.9602000  0.6373500  1.1657500    0.00000       Uiso       1.00
       C79          C  0.0045100  0.6527700  1.1306400    0.00000       Uiso       1.00
       C80          C  0.0277500  0.6985000  1.2192600    0.00000       Uiso       1.00
       C81          C  0.9952400  0.7110300  1.2256099    0.00000       Uiso       1.00
       C82          C  0.9425600  0.9123400  0.6732200    0.00000       Uiso       1.00
       C83          C  0.7245900  0.4205400  1.0789499    0.00000       Uiso       1.00
       C84          C  0.9721500  0.9570800  0.6608700    0.00000       Uiso       1.00
       C85          C  0.6945700  0.3759300  1.0947300    0.00000       Uiso       1.00
       C86          C  0.0149400  0.9724700  0.6601400    0.00000       Uiso       1.00
       C87          C  0.7089400  0.3477900  1.0956500    0.00000       Uiso       1.00
       H47          H  0.8011000  0.7037400  0.6252900    0.00000       Uiso       1.00
       H48          H  0.7602300  0.6288800  0.7124900    0.00000       Uiso       1.00
       H49          H  0.9369800  0.7562200  0.5596400    0.00000       Uiso       1.00
       H50          H  0.9774300  0.8313400  0.5062300    0.00000       Uiso       1.00
       H51          H  0.8762700  0.8409700  0.9281700    0.00000       Uiso       1.00
       H52          H  0.8359000  0.7663000  0.9795200    0.00000       Uiso       1.00
       H53          H  0.7345900  0.5786800  1.1973000    0.00000       Uiso       1.00
       H54          H  0.6929600  0.5035500  1.2636501    0.00000       Uiso       1.00
       H55          H  0.7896800  0.4902900  0.7925500    0.00000       Uiso       1.00
       H56          H  0.8309200  0.5647401  0.7267700    0.00000       Uiso       1.00
       H57          H  0.8709100  0.6029700  1.2320300    0.00000       Uiso       1.00
       H58          H  0.9520900  0.6675100  1.5831699    0.00000       Uiso       1.00
       H59          H  0.9476501  0.6126100  1.3366600    0.00000       Uiso       1.00
       H60          H  0.0109400  0.6482400  0.8655200    0.00000       Uiso       1.00
       H61          H  0.0146100  0.6353500  1.2953401    0.00000       Uiso       1.00
       H62          H  0.0524900  0.7170100  1.0338999    0.00000       Uiso       1.00
       H63          H  0.0421200  0.7031100  1.4724100    0.00000       Uiso       1.00
       H64          H  0.9937500  0.7230300  0.9728100    0.00000       Uiso       1.00
       H65          H  0.0022000  0.7355000  1.4155200    0.00000       Uiso       1.00
       H66          H  0.9099300  0.9020800  0.6782300    0.00000       Uiso       1.00
       H67          H  0.7571200  0.4303900  1.0688300    0.00000       Uiso       1.00
       H68          H  0.0268100  0.9513500  0.6635000    0.00000       Uiso       1.00
       H69          H  0.7418500  0.3592500  1.0913299    0.00000       Uiso       1.00
