data_crystal

_cell_length_a    46.67990
_cell_length_b    46.70010
_cell_length_c    6.80000
_cell_angle_alpha 90.00000
_cell_angle_beta  90.00000
_cell_angle_gamma 60.02690

_space_group_name_Hall 'P 1'
_space_group_name_H-M_alt  'P 1'

loop_
_symmetry_equiv_pos_as_xyz
'x,y,z' 

loop_
_atom_site_label
_atom_site_type_symbol
_atom_site_fract_x
_atom_site_fract_y
_atom_site_fract_z
C          C       0.48772   0.53463   0.73701 
C          C       0.52248   0.51278   0.74064 
C          C       0.53385   0.47834   0.74044 
C          C       0.51225   0.46539   0.73679 
C          C       0.47749   0.48723   0.73303 
C          C       0.46613   0.52168   0.73328 
H          H       0.55867   0.46196   0.74301 
H          H       0.44131   0.53805   0.73062 
C          C       0.45416   0.47610   0.72903 
O          O       0.42368   0.49650   0.72979 
C          C       0.54582   0.52391   0.74433 
O          O       0.57627   0.50349   0.75096 
N          N       0.46239   0.44388   0.72493 
H          H       0.48610   0.42847   0.72486 
N          N       0.53763   0.55612   0.74189 
H          H       0.51393   0.57153   0.73715 
O          O       0.52475   0.43193   0.73698 
O          O       0.47524   0.56808   0.73720 
C          C       0.55557   0.37335   0.73763 
C          C       0.55805   0.40494   0.73904 
H          H       0.58018   0.35148   0.73928 
H          H       0.54249   0.37278   0.60589 
H          H       0.54190   0.37289   0.86670 
H          H       0.57153   0.40569   0.60892 
H          H       0.57097   0.40575   0.87169 
C          C       0.44439   0.62667   0.73500 
C          C       0.44194   0.59506   0.73302 
H          H       0.41977   0.64853   0.73171 
H          H       0.45832   0.62706   0.60698 
H          H       0.45719   0.62735   0.86774 
H          H       0.42928   0.59414   0.59940 
H          H       0.42822   0.59438   0.86208 
N          N       0.56117   0.56863   0.74251 
C          C       0.55374   0.59937   0.74021 
H          H       0.52852   0.61954   0.74187 
N          N       0.43889   0.43134   0.71757 
C          C       0.44636   0.40059   0.71358 
H          H       0.47157   0.38044   0.71972 
C          C       0.97808   0.48748   0.66565 
C          C       0.96523   0.52222   0.67034 
C          C       0.98831   0.53359   0.66314 
C          C       0.02279   0.51203   0.65169 
C          C       0.03565   0.47729   0.64686 
C          C       0.01257   0.46592   0.65412 
H          H       0.97991   0.55839   0.66626 
H          H       0.02098   0.44111   0.65090 
C          C       0.07004   0.45399   0.63521 
O          O       0.08010   0.42352   0.63537 
C          C       0.93083   0.54552   0.68168 
O          O       0.92087   0.57595   0.68889 
N          N       0.09401   0.46223   0.62409 
H          H       0.08572   0.48593   0.62460 
N          N       0.90680   0.53733   0.68629 
H          H       0.91503   0.51365   0.68095 
O          O       0.04374   0.52453   0.64537 
O          O       0.95712   0.47499   0.67235 
C          C       0.07152   0.55535   0.63641 
C          C       0.03748   0.55782   0.64682 
H          H       0.06881   0.57996   0.63709 
H          H       0.08428   0.54253   0.50201 
H          H       0.08649   0.54146   0.76252 
H          H       0.02241   0.57153   0.51970 
H          H       0.02465   0.57048   0.78216 
C          C       0.92936   0.44414   0.67974 
C          C       0.96339   0.44171   0.66878 
H          H       0.93208   0.41953   0.67743 
H          H       0.91422   0.45829   0.55473 
H          H       0.91678   0.45668   0.81512 
H          H       0.97606   0.42931   0.53250 
H          H       0.97862   0.42776   0.79482 
N          N       0.87079   0.56084   0.69497 
C          C       0.84747   0.55341   0.69946 
H          H       0.85252   0.52819   0.70151 
N          N       0.12996   0.43877   0.60867 
C          C       0.15320   0.44626   0.59789 
H          H       0.14821   0.47145   0.60364 
C          C       0.53503   0.97763   0.67963 
C          C       0.51318   0.96476   0.69110 
C          C       0.47872   0.98782   0.69158 
C          C       0.46576   0.02231   0.68122 
C          C       0.48761   0.03519   0.66963 
C          C       0.52207   0.01212   0.66920 
H          H       0.46234   0.97941   0.69969 
H          H       0.53844   0.02054   0.66100 
C          C       0.47647   0.06959   0.65858 
O          O       0.49688   0.07965   0.65255 
C          C       0.52432   0.93035   0.70184 
O          O       0.50390   0.92037   0.71524 
N          N       0.44423   0.09355   0.65447 
H          H       0.42882   0.08526   0.65972 
N          N       0.55654   0.90633   0.69942 
H          H       0.57195   0.91458   0.68937 
O          O       0.43230   0.04325   0.68246 
O          O       0.56850   0.95667   0.67878 
C          C       0.37369   0.07101   0.68736 
C          C       0.40530   0.03697   0.69162 
H          H       0.35181   0.06829   0.69412 
H          H       0.37288   0.08402   0.55217 
H          H       0.37347   0.08575   0.81262 
H          H       0.40580   0.02214   0.56529 
H          H       0.40635   0.02390   0.82769 
C          C       0.62710   0.92894   0.67231 
C          C       0.59548   0.96296   0.66751 
H          H       0.64896   0.93168   0.66392 
H          H       0.62725   0.91403   0.54819 
H          H       0.62803   0.91611   0.80844 
H          H       0.59431   0.97588   0.53053 
H          H       0.59504   0.97795   0.79273 
N          N       0.56906   0.87032   0.70724 
C          C       0.59980   0.84702   0.70506 
H          H       0.61998   0.85207   0.70134 
N          N       0.43166   0.12952   0.63994 
C          C       0.40090   0.15276   0.63583 
H          H       0.38075   0.14774   0.64736 
C          C       0.56426   0.64963   0.73289 
C          C       0.58531   0.66262   0.72813 
H          H       0.53779   0.66635   0.73514 
H          H       0.57477   0.68918   0.72679 
C          C       0.78670   0.56390   0.70778 
C          C       0.75266   0.58494   0.71073 
H          H       0.79643   0.53745   0.70924 
H          H       0.73664   0.57440   0.71442 
C          C       0.65006   0.78627   0.70406 
C          C       0.66305   0.75224   0.70586 
H          H       0.66680   0.79600   0.70034 
H          H       0.68962   0.73623   0.70352 
C          C       0.59138   0.79545   0.71220 
C          C       0.60370   0.76152   0.71410 
H          H       0.56487   0.81195   0.71448 
H          H       0.58652   0.75236   0.71782 
C          C       0.79590   0.61338   0.70076 
C          C       0.76196   0.63498   0.70362 
H          H       0.81241   0.62338   0.69705 
H          H       0.75280   0.66132   0.70209 
C          C       0.61374   0.59096   0.73177 
C          C       0.63535   0.60330   0.72700 
H          H       0.62374   0.56447   0.73320 
H          H       0.66170   0.58612   0.72481 
C          C       0.65418   0.70102   0.71303 
C          C       0.61400   0.80890   0.70714 
C          C       0.64045   0.73790   0.71101 
C          C       0.64540   0.65377   0.71974 
C          C       0.57767   0.61357   0.73486 
C          C       0.62225   0.64003   0.72491 
C          C       0.70144   0.64500   0.71196 
C          C       0.80935   0.57732   0.70272 
C          C       0.73832   0.62187   0.70880 
C          C       0.68838   0.67929   0.71013 
C          C       0.63295   0.68796   0.71783 
C          C       0.67969   0.63256   0.71676 
C          C       0.43597   0.35029   0.69730 
C          C       0.41499   0.33727   0.68520 
H          H       0.46241   0.33359   0.70478 
H          H       0.42556   0.31071   0.68353 
C          C       0.21386   0.43583   0.62160 
C          C       0.24786   0.41481   0.63133 
H          H       0.20410   0.46229   0.62360 
H          H       0.26383   0.42538   0.64070 
C          C       0.35063   0.21349   0.62840 
C          C       0.33761   0.24752   0.63077 
H          H       0.33395   0.20373   0.61892 
H          H       0.31107   0.26351   0.62308 
C          C       0.40920   0.20436   0.65151 
C          C       0.39683   0.23829   0.65414 
H          H       0.43568   0.18788   0.65907 
H          H       0.41397   0.24748   0.66369 
C          C       0.20478   0.38631   0.60606 
C          C       0.23868   0.36474   0.61562 
H          H       0.18832   0.37629   0.59662 
H          H       0.24787   0.33839   0.61340 
C          C       0.38648   0.40894   0.68972 
C          C       0.36495   0.39657   0.67753 
H          H       0.37645   0.43544   0.69161 
H          H       0.33862   0.41373   0.67021 
C          C       0.34635   0.29878   0.64657 
C          C       0.38666   0.19088   0.63863 
C          C       0.36013   0.26189   0.64385 
C          C       0.35502   0.34606   0.66141 
C          C       0.42252   0.38635   0.69996 
C          C       0.37809   0.35983   0.67458 
C          C       0.29909   0.35477   0.63933 
C          C       0.19129   0.42238   0.60871 
C          C       0.26224   0.37788   0.62887 
C          C       0.31219   0.32049   0.63694 
C          C       0.36751   0.31187   0.65877 
C          C       0.32077   0.36725   0.65160 
C          C       0.48772   0.53463   1.23701 
C          C       0.52248   0.51278   1.24064 
C          C       0.53385   0.47834   1.24044 
C          C       0.51225   0.46539   1.23679 
C          C       0.47749   0.48723   1.23303 
C          C       0.46613   0.52168   1.23328 
H          H       0.55867   0.46196   1.24301 
H          H       0.44131   0.53805   1.23062 
C          C       0.45416   0.47610   1.22903 
O          O       0.42368   0.49650   1.22979 
C          C       0.54582   0.52391   1.24433 
O          O       0.57627   0.50349   1.25096 
N          N       0.46239   0.44388   1.22493 
H          H       0.48610   0.42847   1.22486 
N          N       0.53763   0.55612   1.24190 
H          H       0.51393   0.57153   1.23715 
O          O       0.52475   0.43193   1.23697 
O          O       0.47524   0.56808   1.23720 
C          C       0.55557   0.37335   1.23763 
C          C       0.55805   0.40494   1.23904 
H          H       0.58018   0.35148   1.23928 
H          H       0.54249   0.37278   1.10589 
H          H       0.54190   0.37289   1.36670 
H          H       0.57153   0.40569   1.10892 
H          H       0.57097   0.40575   1.37169 
C          C       0.44439   0.62667   1.23500 
C          C       0.44194   0.59506   1.23302 
H          H       0.41977   0.64853   1.23171 
H          H       0.45832   0.62706   1.10698 
H          H       0.45719   0.62735   1.36774 
H          H       0.42928   0.59414   1.09940 
H          H       0.42822   0.59438   1.36209 
N          N       0.56117   0.56863   1.24251 
C          C       0.55374   0.59937   1.24021 
H          H       0.52852   0.61954   1.24187 
N          N       0.43889   0.43134   1.21758 
C          C       0.44636   0.40059   1.21358 
H          H       0.47157   0.38044   1.21972 
C          C       0.97808   0.48748   1.16565 
C          C       0.96523   0.52222   1.17034 
C          C       0.98831   0.53359   1.16314 
C          C       0.02279   0.51203   1.15169 
C          C       0.03565   0.47729   1.14686 
C          C       0.01257   0.46592   1.15412 
H          H       0.97991   0.55839   1.16626 
H          H       0.02098   0.44111   1.15090 
C          C       0.07004   0.45399   1.13521 
O          O       0.08010   0.42352   1.13537 
C          C       0.93083   0.54552   1.18169 
O          O       0.92087   0.57595   1.18889 
N          N       0.09401   0.46223   1.12409 
H          H       0.08572   0.48593   1.12461 
N          N       0.90680   0.53733   1.18629 
H          H       0.91503   0.51365   1.18095 
O          O       0.04374   0.52453   1.14537 
O          O       0.95712   0.47499   1.17235 
C          C       0.07152   0.55535   1.13641 
C          C       0.03748   0.55782   1.14681 
H          H       0.06881   0.57996   1.13709 
H          H       0.08428   0.54253   1.00201 
H          H       0.08649   0.54146   1.26252 
H          H       0.02241   0.57153   1.01970 
H          H       0.02465   0.57048   1.28216 
C          C       0.92936   0.44414   1.17975 
C          C       0.96339   0.44171   1.16878 
H          H       0.93208   0.41953   1.17743 
H          H       0.91422   0.45829   1.05473 
H          H       0.91678   0.45668   1.31512 
H          H       0.97606   0.42931   1.03250 
H          H       0.97862   0.42776   1.29482 
N          N       0.87079   0.56084   1.19497 
C          C       0.84747   0.55341   1.19946 
H          H       0.85252   0.52819   1.20151 
N          N       0.12996   0.43877   1.10867 
C          C       0.15320   0.44626   1.09789 
H          H       0.14821   0.47145   1.10364 
C          C       0.53503   0.97763   1.17963 
C          C       0.51318   0.96476   1.19110 
C          C       0.47872   0.98782   1.19158 
C          C       0.46576   0.02231   1.18122 
C          C       0.48761   0.03519   1.16963 
C          C       0.52207   0.01212   1.16920 
H          H       0.46234   0.97941   1.19969 
H          H       0.53844   0.02054   1.16100 
C          C       0.47647   0.06959   1.15858 
O          O       0.49688   0.07965   1.15255 
C          C       0.52432   0.93035   1.20184 
O          O       0.50390   0.92037   1.21524 
N          N       0.44423   0.09355   1.15447 
H          H       0.42882   0.08526   1.15972 
N          N       0.55654   0.90633   1.19942 
H          H       0.57195   0.91458   1.18937 
O          O       0.43230   0.04325   1.18246 
O          O       0.56850   0.95667   1.17878 
C          C       0.37369   0.07101   1.18736 
C          C       0.40530   0.03697   1.19162 
H          H       0.35181   0.06829   1.19412 
H          H       0.37288   0.08402   1.05217 
H          H       0.37347   0.08575   1.31262 
H          H       0.40580   0.02214   1.06529 
H          H       0.40635   0.02390   1.32769 
C          C       0.62710   0.92894   1.17231 
C          C       0.59548   0.96296   1.16751 
H          H       0.64896   0.93168   1.16393 
H          H       0.62725   0.91403   1.04819 
H          H       0.62803   0.91611   1.30844 
H          H       0.59431   0.97588   1.03053 
H          H       0.59504   0.97795   1.29273 
N          N       0.56906   0.87032   1.20724 
C          C       0.59980   0.84702   1.20506 
H          H       0.61998   0.85207   1.20134 
N          N       0.43166   0.12952   1.13993 
C          C       0.40090   0.15276   1.13583 
H          H       0.38075   0.14774   1.14735 
C          C       0.56426   0.64963   1.23289 
C          C       0.58531   0.66262   1.22813 
H          H       0.53779   0.66635   1.23514 
H          H       0.57477   0.68918   1.22679 
C          C       0.78670   0.56390   1.20778 
C          C       0.75266   0.58494   1.21073 
H          H       0.79643   0.53745   1.20924 
H          H       0.73664   0.57440   1.21442 
C          C       0.65006   0.78627   1.20406 
C          C       0.66305   0.75224   1.20586 
H          H       0.66680   0.79600   1.20034 
H          H       0.68962   0.73623   1.20352 
C          C       0.59138   0.79545   1.21220 
C          C       0.60370   0.76152   1.21410 
H          H       0.56487   0.81195   1.21448 
H          H       0.58652   0.75236   1.21782 
C          C       0.79590   0.61338   1.20076 
C          C       0.76196   0.63498   1.20362 
H          H       0.81241   0.62338   1.19704 
H          H       0.75280   0.66132   1.20209 
C          C       0.61374   0.59096   1.23177 
C          C       0.63535   0.60330   1.22700 
H          H       0.62374   0.56447   1.23320 
H          H       0.66170   0.58612   1.22481 
C          C       0.65418   0.70102   1.21303 
C          C       0.61400   0.80890   1.20714 
C          C       0.64045   0.73790   1.21101 
C          C       0.64540   0.65377   1.21974 
C          C       0.57767   0.61357   1.23486 
C          C       0.62225   0.64003   1.22491 
C          C       0.70144   0.64500   1.21196 
C          C       0.80935   0.57732   1.20272 
C          C       0.73832   0.62187   1.20880 
C          C       0.68838   0.67929   1.21013 
C          C       0.63295   0.68796   1.21782 
C          C       0.67969   0.63256   1.21676 
C          C       0.43597   0.35029   1.19730 
C          C       0.41499   0.33727   1.18520 
H          H       0.46241   0.33359   1.20478 
H          H       0.42556   0.31071   1.18352 
C          C       0.21386   0.43583   1.12160 
C          C       0.24786   0.41481   1.13133 
H          H       0.20410   0.46229   1.12360 
H          H       0.26383   0.42538   1.14070 
C          C       0.35063   0.21349   1.12840 
C          C       0.33761   0.24752   1.13077 
H          H       0.33395   0.20373   1.11892 
H          H       0.31107   0.26351   1.12308 
C          C       0.40920   0.20436   1.15152 
C          C       0.39683   0.23829   1.15414 
H          H       0.43568   0.18788   1.15907 
H          H       0.41397   0.24748   1.16369 
C          C       0.20478   0.38631   1.10606 
C          C       0.23868   0.36474   1.11562 
H          H       0.18832   0.37629   1.09662 
H          H       0.24787   0.33839   1.11340 
C          C       0.38648   0.40894   1.18972 
C          C       0.36495   0.39657   1.17753 
H          H       0.37645   0.43544   1.19161 
H          H       0.33862   0.41373   1.17021 
C          C       0.34635   0.29878   1.14657 
C          C       0.38666   0.19088   1.13863 
C          C       0.36013   0.26189   1.14386 
C          C       0.35502   0.34606   1.16141 
C          C       0.42252   0.38635   1.19996 
C          C       0.37809   0.35983   1.17458 
C          C       0.29909   0.35477   1.13933 
C          C       0.19129   0.42238   1.10871 
C          C       0.26224   0.37788   1.12887 
C          C       0.31219   0.32049   1.13694 
C          C       0.36751   0.31187   1.15877 
C          C       0.32077   0.36725   1.15160 
