data_crystal
 
_cell_length_a    16.11800
_cell_length_b    16.11800
_cell_length_c    16.14670
_cell_angle_alpha 90.00000
_cell_angle_beta  90.00000
_cell_angle_gamma 90.00000
 
_symmetry_space_group_name_Hall 'P 1'
_symmetry_space_group_name_H-M  'P 1'
 
loop_
_symmetry_equiv_pos_as_xyz
 'x,y,z' 
 
loop_
_atom_site_label
_atom_site_type_symbol
_atom_site_fract_x
_atom_site_fract_y
_atom_site_fract_z
_atom_site_charge
C          C       0.34368   0.60286   0.33743   0.0000000000
C          C       0.40772   0.61815   0.38965   0.0000000000
H          H       0.31410   0.54684   0.34133   0.0000000000
C          C       0.83605   0.33705   0.10065   0.0000000000
C          C       0.88958   0.39913   0.11915   0.0000000000
H          H       0.83920   0.31022   0.04330   0.0000000000
C          C       0.83755   0.59335   0.84498   0.0000000000
C          C       0.89035   0.61097   0.90778   0.0000000000
H          H       0.83986   0.53576   0.81842   0.0000000000
C          C       0.65632   0.39715   0.33743   0.0000000000
C          C       0.59228   0.38185   0.38965   0.0000000000
H          H       0.68590   0.45317   0.34133   0.0000000000
C          C       0.16395   0.66295   0.10065   0.0000000000
C          C       0.11042   0.60088   0.11915   0.0000000000
H          H       0.16080   0.68978   0.04330   0.0000000000
C          C       0.16245   0.40665   0.84498   0.0000000000
C          C       0.10965   0.38904   0.90778   0.0000000000
H          H       0.16014   0.46424   0.81842   0.0000000000
C          C       0.60285   0.65632   0.66258   0.0000000000
C          C       0.61815   0.59228   0.61036   0.0000000000
H          H       0.54683   0.68590   0.65868   0.0000000000
C          C       0.33705   0.16395   0.89936   0.0000000000
C          C       0.39913   0.11042   0.88087   0.0000000000
H          H       0.31022   0.16080   0.95671   0.0000000000
C          C       0.59335   0.16245   0.15504   0.0000000000
C          C       0.61096   0.10966   0.09223   0.0000000000
H          H       0.53576   0.16015   0.18160   0.0000000000
C          C       0.39714   0.34369   0.66258   0.0000000000
C          C       0.38185   0.40772   0.61036   0.0000000000
H          H       0.45316   0.31411   0.65868   0.0000000000
C          C       0.66295   0.83605   0.89936   0.0000000000
C          C       0.60087   0.88958   0.88087   0.0000000000
H          H       0.68978   0.83920   0.95671   0.0000000000
C          C       0.40665   0.83756   0.15504   0.0000000000
C          C       0.38904   0.89035   0.09223   0.0000000000
H          H       0.46424   0.83986   0.18160   0.0000000000
C          C       0.61111   0.48962   0.50103   0.0000000000
C          C       0.99961   0.61167   0.00918   0.0000000000
C          C       0.38889   0.51039   0.50103   0.0000000000
C          C       0.00038   0.38834   0.00918   0.0000000000
C          C       0.48961   0.38890   0.49899   0.0000000000
C          C       0.61166   0.00039   0.99083   0.0000000000
C          C       0.51039   0.61111   0.49899   0.0000000000
C          C       0.38834   0.99962   0.99083   0.0000000000
C          C       0.50000   0.00000   0.10305   0.0000000000
C          C       0.50000   0.00000   0.88017   0.0000000000
C          C      -0.00000   0.50000   0.89696   0.0000000000
C          C      -0.00000   0.50000   0.11984   0.0000000000
C          C       0.55123   0.43908   0.44363   0.0000000000
C          C       0.94368   0.55625   0.95259   0.0000000000
C          C       0.94361   0.44372   0.06488   0.0000000000
C          C       0.44877   0.56093   0.44363   0.0000000000
C          C       0.05631   0.44376   0.95259   0.0000000000
C          C       0.05639   0.55628   0.06488   0.0000000000
C          C       0.43908   0.44877   0.55638   0.0000000000
C          C       0.55624   0.05632   0.04742   0.0000000000
C          C       0.44372   0.05640   0.93514   0.0000000000
C          C       0.56092   0.55123   0.55638   0.0000000000
C          C       0.44375   0.94369   0.04742   0.0000000000
C          C       0.55628   0.94361   0.93514   0.0000000000
H          H       0.44695   0.35301   0.46052   0.0000000000
H          H       0.52500   0.34458   0.53585   0.0000000000
H          H       0.96242   0.46051   0.85693   0.0000000000
H          H       0.96181   0.53879   0.16019   0.0000000000
H          H       0.34834   0.96139   0.95174   0.0000000000
H          H       0.65218   0.96282   0.02987   0.0000000000
H          H       0.55304   0.64700   0.46052   0.0000000000
H          H       0.47500   0.65543   0.53585   0.0000000000
H          H       0.03758   0.53949   0.85693   0.0000000000
H          H       0.03818   0.46121   0.16019   0.0000000000
H          H       0.65166   0.03861   0.95174   0.0000000000
H          H       0.34781   0.03718   0.02987   0.0000000000
H          H       0.35300   0.55305   0.53950   0.0000000000
H          H       0.34457   0.47501   0.46417   0.0000000000
H          H       0.46051   0.03758   0.14309   0.0000000000
H          H       0.53879   0.03819   0.83982   0.0000000000
H          H       0.96139   0.65166   0.04827   0.0000000000
H          H       0.96282   0.34782   0.97015   0.0000000000
H          H       0.64699   0.44696   0.53950   0.0000000000
H          H       0.65542   0.52500   0.46417   0.0000000000
H          H       0.53949   0.96242   0.14309   0.0000000000
H          H       0.46121   0.96182   0.83982   0.0000000000
H          H       0.03861   0.34834   0.04827   0.0000000000
H          H       0.03718   0.65219   0.97015   0.0000000000
H          H       0.54150   0.53526   0.34854   0.0000000000
H          H       0.84824   0.53857   0.04704   0.0000000000
H          H       0.84840   0.46157   0.97011   0.0000000000
H          H       0.45850   0.46475   0.34854   0.0000000000
H          H       0.15176   0.46144   0.04704   0.0000000000
H          H       0.15160   0.53843   0.97011   0.0000000000
H          H       0.53525   0.45850   0.65147   0.0000000000
H          H       0.53856   0.15176   0.95297   0.0000000000
H          H       0.46157   0.15160   0.02991   0.0000000000
H          H       0.46474   0.54150   0.65147   0.0000000000
H          H       0.46143   0.84824   0.95297   0.0000000000
H          H       0.53843   0.84841   0.02991   0.0000000000
C          C       0.75608   0.72127   0.86529   0.0000000000
C          C       0.36895   0.72710   0.25174   0.0000000000
C          C       0.35964   0.24848   0.77403   0.0000000000
C          C       0.24392   0.27874   0.86529   0.0000000000
C          C       0.63105   0.27290   0.25174   0.0000000000
C          C       0.64036   0.75153   0.77403   0.0000000000
C          C       0.72126   0.24392   0.13473   0.0000000000
C          C       0.72710   0.63105   0.74828   0.0000000000
C          C       0.24847   0.64036   0.22598   0.0000000000
C          C       0.27874   0.75608   0.13473   0.0000000000
C          C       0.27290   0.36895   0.74828   0.0000000000
C          C       0.75152   0.35964   0.22598   0.0000000000
C          C       0.77581   0.64952   0.81875   0.0000000000
C          C       0.22807   0.68739   0.15489   0.0000000000
C          C       0.68028   0.34202   0.27399   0.0000000000
C          C       0.22418   0.35049   0.81875   0.0000000000
C          C       0.77193   0.31261   0.15489   0.0000000000
C          C       0.31972   0.65798   0.27399   0.0000000000
C          C       0.64951   0.22419   0.18126   0.0000000000
C          C       0.68739   0.77193   0.84512   0.0000000000
C          C       0.34202   0.31972   0.72603   0.0000000000
C          C       0.35048   0.77582   0.18126   0.0000000000
C          C       0.31261   0.22808   0.84512   0.0000000000
C          C       0.65798   0.68028   0.72603   0.0000000000
H          H       0.79090   0.73541   0.91642   0.0000000000
H          H       0.42061   0.74061   0.28611   0.0000000000
H          H       0.40937   0.21213   0.75849   0.0000000000
H          H       0.20910   0.26459   0.91642   0.0000000000
H          H       0.57939   0.25939   0.28611   0.0000000000
H          H       0.59062   0.78788   0.75849   0.0000000000
H          H       0.73541   0.20911   0.08359   0.0000000000
H          H       0.74061   0.57939   0.71390   0.0000000000
H          H       0.21212   0.59063   0.24152   0.0000000000
H          H       0.26459   0.79090   0.08359   0.0000000000
H          H       0.25939   0.42062   0.71390   0.0000000000
H          H       0.78788   0.40938   0.24152   0.0000000000
C          C       0.88867   0.50001   0.00864   0.0000000000
C          C       0.11132   0.49999   0.00864   0.0000000000
C          C       0.50001   0.11133   0.99137   0.0000000000
C          C       0.49999   0.88868   0.99137   0.0000000000
C          C       0.50000   0.50000   0.38885   0.0000000000
C          C       0.50000   0.50000   0.61117   0.0000000000
