data_crystal

_cell_length_a    25.60270
_cell_length_b    24.36410
_cell_length_c    11.20000
_cell_angle_alpha 90.00000
_cell_angle_beta  90.00000
_cell_angle_gamma 61.58780

_space_group_name_Hall 'P 1'
_space_group_name_H-M_alt  'P 1'

loop_
_symmetry_equiv_pos_as_xyz
'x,y,z' 

loop_
_atom_site_label
_atom_site_type_symbol
_atom_site_fract_x
_atom_site_fract_y
_atom_site_fract_z
C          C       0.35697   0.47258   0.44504 
N          N       0.37122   0.52599   0.44426 
C          C       0.43503   0.51298   0.44516 
C          C       0.44918   0.56772   0.44620 
C          C       0.51420   0.55472   0.44777 
H          H       0.39445   0.42241   0.44589 
H          H       0.41164   0.61767   0.44589 
H          H       0.52475   0.59527   0.44873 
C          C       0.64305   0.52742   0.44767 
N          N       0.62877   0.47402   0.44820 
C          C       0.56496   0.48702   0.44777 
C          C       0.55082   0.43226   0.44683 
C          C       0.48579   0.44527   0.44536 
H          H       0.60561   0.57761   0.44740 
H          H       0.58835   0.38232   0.44700 
H          H       0.47524   0.40473   0.44439 
C          C       0.35697   0.17046   0.44767 
N          N       0.37122   0.10281   0.44845 
C          C       0.43503   0.05201   0.44754 
C          C       0.44918   0.98312   0.44651 
C          C       0.51420   0.93109   0.44494 
H          H       0.39445   0.18316   0.44682 
H          H       0.41164   0.97071   0.44682 
H          H       0.52475   0.88000   0.44398 
C          C       0.64305   0.82954   0.44504 
N          N       0.62877   0.89722   0.44451 
C          C       0.56496   0.94804   0.44494 
C          C       0.55082   0.01694   0.44588 
C          C       0.48579   0.06896   0.44735 
H          H       0.60561   0.81680   0.44532 
H          H       0.58835   0.02934   0.44571 
H          H       0.47524   0.12005   0.44832 
S          S       0.07122   0.40489   0.44688 
C          C       0.03007   0.48497   0.44635 
C          C       0.96996   0.51503   0.44636 
S          S       0.92881   0.47609   0.44688 
S          S       0.92881   0.59512   0.44584 
S          S       0.07122   0.52391   0.44584 
C          C       0.13793   0.40380   0.44660 
C          C       0.13793   0.45828   0.44612 
C          C       0.86209   0.54172   0.44660 
C          C       0.86209   0.59620   0.44612 
C          C       0.19602   0.34140   0.44688 
C          C       0.20903   0.29811   0.35398 
C          C       0.26194   0.24161   0.35538 
C          C       0.30239   0.22777   0.44953 
C          C       0.28943   0.27095   0.54232 
C          C       0.23654   0.32746   0.54102 
H          H       0.17834   0.30798   0.28051 
H          H       0.27142   0.20866   0.28316 
H          H       0.32029   0.26084   0.61557 
H          H       0.22714   0.36037   0.61333 
C          C       0.80401   0.53740   0.44688 
C          C       0.79100   0.50747   0.54043 
C          C       0.73808   0.50388   0.53955 
C          C       0.69764   0.53013   0.44529 
C          C       0.71059   0.56002   0.35186 
C          C       0.76349   0.56364   0.35265 
H          H       0.82169   0.48691   0.61399 
H          H       0.72861   0.48066   0.61226 
H          H       0.67974   0.58049   0.27853 
H          H       0.77289   0.58688   0.27985 
C          C       0.80401   0.65861   0.44583 
C          C       0.79100   0.70155   0.35229 
C          C       0.73808   0.75805   0.35316 
C          C       0.69764   0.77225   0.44742 
C          C       0.71059   0.72940   0.54085 
C          C       0.76349   0.67289   0.54007 
H          H       0.82169   0.69141   0.27872 
H          H       0.72861   0.79074   0.28046 
H          H       0.67974   0.73978   0.61419 
H          H       0.77289   0.64025   0.61287 
C          C       0.19602   0.46261   0.44583 
C          C       0.20903   0.49288   0.53873 
C          C       0.26194   0.49646   0.53734 
C          C       0.30239   0.46986   0.44318 
C          C       0.28943   0.43963   0.35039 
C          C       0.23654   0.43602   0.35170 
H          H       0.17834   0.51370   0.61220 
H          H       0.27142   0.51994   0.60955 
H          H       0.32029   0.41889   0.27714 
H          H       0.22714   0.41251   0.27938 
C          C       0.35697   0.47258   0.94504 
N          N       0.37122   0.52599   0.94426 
C          C       0.43503   0.51298   0.94516 
C          C       0.44918   0.56772   0.94620 
C          C       0.51420   0.55472   0.94777 
H          H       0.39445   0.42241   0.94589 
H          H       0.41164   0.61767   0.94589 
H          H       0.52475   0.59527   0.94873 
C          C       0.64305   0.52742   0.94767 
N          N       0.62877   0.47402   0.94820 
C          C       0.56496   0.48702   0.94777 
C          C       0.55082   0.43226   0.94683 
C          C       0.48579   0.44527   0.94536 
H          H       0.60561   0.57761   0.94740 
H          H       0.58835   0.38232   0.94700 
H          H       0.47524   0.40473   0.94439 
C          C       0.35697   0.17046   0.94767 
N          N       0.37122   0.10281   0.94845 
C          C       0.43503   0.05201   0.94754 
C          C       0.44918   0.98312   0.94651 
C          C       0.51420   0.93109   0.94494 
H          H       0.39445   0.18316   0.94683 
H          H       0.41164   0.97071   0.94681 
H          H       0.52475   0.88000   0.94398 
C          C       0.64305   0.82954   0.94504 
N          N       0.62877   0.89722   0.94451 
C          C       0.56496   0.94804   0.94494 
C          C       0.55082   0.01694   0.94588 
C          C       0.48579   0.06896   0.94735 
H          H       0.60561   0.81680   0.94531 
H          H       0.58835   0.02934   0.94571 
H          H       0.47524   0.12005   0.94832 
S          S       0.07122   0.40489   0.94688 
C          C       0.03007   0.48497   0.94636 
C          C       0.96996   0.51503   0.94636 
S          S       0.92881   0.47609   0.94688 
S          S       0.92881   0.59512   0.94584 
S          S       0.07122   0.52391   0.94584 
C          C       0.13793   0.40380   0.94659 
C          C       0.13793   0.45828   0.94612 
C          C       0.86209   0.54172   0.94659 
C          C       0.86209   0.59620   0.94612 
C          C       0.19602   0.34140   0.94688 
C          C       0.20903   0.29811   0.85398 
C          C       0.26194   0.24161   0.85538 
C          C       0.30239   0.22777   0.94952 
C          C       0.28943   0.27095   1.04232 
C          C       0.23654   0.32746   1.04102 
H          H       0.17834   0.30798   0.78050 
H          H       0.27142   0.20866   0.78316 
H          H       0.32029   0.26084   1.11557 
H          H       0.22714   0.36037   1.11333 
C          C       0.80401   0.53740   0.94688 
C          C       0.79100   0.50747   1.04043 
C          C       0.73808   0.50388   1.03955 
C          C       0.69764   0.53013   0.94529 
C          C       0.71059   0.56002   0.85186 
C          C       0.76349   0.56364   0.85265 
H          H       0.82169   0.48691   1.11400 
H          H       0.72861   0.48066   1.11226 
H          H       0.67974   0.58049   0.77853 
H          H       0.77289   0.58688   0.77985 
C          C       0.80401   0.65861   0.94583 
C          C       0.79100   0.70155   0.85229 
C          C       0.73808   0.75805   0.85316 
C          C       0.69764   0.77225   0.94742 
C          C       0.71059   0.72940   1.04085 
C          C       0.76349   0.67289   1.04006 
H          H       0.82169   0.69141   0.77872 
H          H       0.72861   0.79074   0.78045 
H          H       0.67974   0.73978   1.11419 
H          H       0.77289   0.64025   1.11287 
C          C       0.19602   0.46261   0.94583 
C          C       0.20903   0.49288   1.03873 
C          C       0.26194   0.49646   1.03733 
C          C       0.30239   0.46986   0.94319 
C          C       0.28943   0.43963   0.85039 
C          C       0.23654   0.43602   0.85170 
H          H       0.17834   0.51370   1.11220 
H          H       0.27142   0.51994   1.10955 
H          H       0.32029   0.41889   0.77714 
H          H       0.22714   0.41251   0.77938 
