data_crystal

_cell_length_a    37.80060
_cell_length_b    43.26450
_cell_length_c    7.91860
_cell_angle_alpha 90.00000
_cell_angle_beta  90.00000
_cell_angle_gamma 90.00000

_space_group_name_Hall 'P 1'
_space_group_name_H-M_alt  'P 1'

loop_
_symmetry_equiv_pos_as_xyz
'x,y,z' 

loop_
_atom_site_label
_atom_site_type_symbol
_atom_site_fract_x
_atom_site_fract_y
_atom_site_fract_z
C          C       0.96743   0.46668   0.23194 
C          C       0.46743   0.96668   0.23194 
C          C       0.03260   0.53332   0.23194 
C          C       0.53260   0.03332   0.23194 
C          C       0.96743   0.53332   0.23194 
C          C       0.46743   0.03332   0.23194 
C          C       0.03260   0.46668   0.23194 
C          C       0.53260   0.96668   0.23194 
C          C       0.93634   0.51614   0.20071 
C          C       0.43634   0.01614   0.20071 
C          C       0.06369   0.48386   0.20071 
C          C       0.56369   0.98386   0.20071 
C          C       0.93634   0.48386   0.20071 
C          C       0.43634   0.98386   0.20071 
C          C       0.06369   0.51614   0.20071 
C          C       0.56369   0.01614   0.20071 
C          C       0.96704   0.56598   0.25814 
C          C       0.46704   0.06598   0.25814 
C          C       0.03298   0.43402   0.25814 
C          C       0.53298   0.93402   0.25814 
C          C       0.96704   0.43402   0.25814 
C          C       0.46704   0.93402   0.25814 
C          C       0.03298   0.56598   0.25814 
C          C       0.53298   0.06598   0.25814 
C          C       0.93614   0.58486   0.26717 
C          C       0.43614   0.08486   0.26717 
C          C       0.06389   0.41514   0.26717 
C          C       0.56389   0.91514   0.26717 
C          C       0.93614   0.41514   0.26717 
C          C       0.43614   0.91514   0.26717 
C          C       0.06389   0.58486   0.26717 
C          C       0.56389   0.08486   0.26717 
C          C       0.90592   0.57621   0.36155 
C          C       0.40592   0.07621   0.36155 
C          C       0.09411   0.42379   0.36155 
C          C       0.59411   0.92379   0.36155 
C          C       0.90592   0.42379   0.36155 
C          C       0.40592   0.92379   0.36155 
C          C       0.09411   0.57621   0.36155 
C          C       0.59411   0.07621   0.36155 
C          C       0.87546   0.59488   0.36820 
C          C       0.37546   0.09488   0.36820 
C          C       0.12457   0.40512   0.36820 
C          C       0.62457   0.90512   0.36820 
C          C       0.87546   0.40512   0.36820 
C          C       0.37546   0.90512   0.36820 
C          C       0.12457   0.59488   0.36820 
C          C       0.62457   0.09488   0.36820 
C          C       0.87450   0.62387   0.28618 
C          C       0.37450   0.12387   0.28618 
C          C       0.12553   0.37613   0.28618 
C          C       0.62553   0.87613   0.28618 
C          C       0.87450   0.37613   0.28618 
C          C       0.37450   0.87613   0.28618 
C          C       0.12553   0.62387   0.28618 
C          C       0.62553   0.12387   0.28618 
C          C       0.90484   0.63318   0.19505 
C          C       0.40484   0.13318   0.19505 
C          C       0.09519   0.36682   0.19505 
C          C       0.59519   0.86682   0.19505 
C          C       0.90484   0.36682   0.19505 
C          C       0.40484   0.86682   0.19505 
C          C       0.09519   0.63318   0.19505 
C          C       0.59519   0.13318   0.19505 
C          C       0.93474   0.61390   0.18402 
C          C       0.43475   0.11390   0.18402 
C          C       0.06528   0.38610   0.18402 
C          C       0.56528   0.88610   0.18402 
C          C       0.93474   0.38610   0.18402 
C          C       0.43475   0.88610   0.18402 
C          C       0.06528   0.61390   0.18402 
C          C       0.56528   0.11390   0.18402 
C          C       0.84402   0.64253   0.29722 
C          C       0.34402   0.14253   0.29722 
C          C       0.15601   0.35746   0.29722 
C          C       0.65601   0.85747   0.29722 
C          C       0.84402   0.35746   0.29722 
C          C       0.34402   0.85747   0.29722 
C          C       0.15601   0.64253   0.29722 
C          C       0.65601   0.14253   0.29722 
H          H       0.91279   0.52679   0.17826 
H          H       0.41279   0.02679   0.17826 
H          H       0.08724   0.47321   0.17826 
H          H       0.58724   0.97321   0.17826 
H          H       0.91279   0.47321   0.17826 
H          H       0.41279   0.97321   0.17826 
H          H       0.08724   0.52679   0.17826 
H          H       0.58724   0.02679   0.17826 
H          H       0.90590   0.55614   0.42875 
H          H       0.40590   0.05614   0.42875 
H          H       0.09413   0.44386   0.42875 
H          H       0.59413   0.94386   0.42875 
H          H       0.90590   0.44386   0.42875 
H          H       0.40590   0.94386   0.42875 
H          H       0.09413   0.55614   0.42875 
H          H       0.59413   0.05614   0.42875 
H          H       0.85417   0.58729   0.43654 
H          H       0.35417   0.08729   0.43654 
H          H       0.14586   0.41271   0.43654 
H          H       0.64585   0.91271   0.43654 
H          H       0.85417   0.41271   0.43654 
H          H       0.35417   0.91271   0.43654 
H          H       0.14586   0.58729   0.43654 
H          H       0.64585   0.08729   0.43654 
H          H       0.90520   0.65400   0.13359 
H          H       0.40520   0.15400   0.13359 
H          H       0.09483   0.34600   0.13359 
H          H       0.59483   0.84600   0.13359 
H          H       0.90520   0.34600   0.13359 
H          H       0.40520   0.84600   0.13359 
H          H       0.09483   0.65400   0.13359 
H          H       0.59483   0.15400   0.13359 
H          H       0.95558   0.62129   0.11210 
H          H       0.45559   0.12129   0.11210 
H          H       0.04444   0.37871   0.11210 
H          H       0.54444   0.87871   0.11210 
H          H       0.95558   0.37871   0.11210 
H          H       0.45559   0.87871   0.11210 
H          H       0.04444   0.62129   0.11210 
H          H       0.54444   0.12129   0.11210 
H          H       0.82229   0.63404   0.35868 
H          H       0.32229   0.13404   0.35868 
H          H       0.17773   0.36596   0.35868 
H          H       0.67773   0.86596   0.35868 
H          H       0.82229   0.36596   0.35868 
H          H       0.32229   0.86596   0.35868 
H          H       0.17773   0.63404   0.35868 
H          H       0.67773   0.13404   0.35868 
N          N       0.84294   0.67143   0.23181 
N          N       0.34294   0.17143   0.23181 
N          N       0.15709   0.32857   0.23181 
N          N       0.65708   0.82857   0.23181 
N          N       0.84294   0.32857   0.23181 
N          N       0.34294   0.82857   0.23181 
N          N       0.15709   0.67143   0.23181 
N          N       0.65708   0.17143   0.23181 
C          C       0.00001   0.58086   0.27994 
C          C       0.50001   0.08086   0.27994 
C          C       0.00001   0.41914   0.27994 
C          C       0.50001   0.91914   0.27994 
C          C       0.00001   0.48339   0.23298 
C          C       0.50001   0.98339   0.23298 
C          C       0.00001   0.51661   0.23298 
C          C       0.50001   0.01661   0.23298 
H          H       0.00001   0.60377   0.31299 
H          H       0.50001   0.10377   0.31299 
H          H       0.00001   0.39623   0.31299 
H          H       0.50001   0.89623   0.31299 
C          C       0.18374   0.30765   0.22714 
C          C       0.17489   0.27715   0.18177 
C          C       0.20094   0.25389   0.17723 
C          C       0.23648   0.26124   0.21600 
N          N       0.24419   0.29115   0.25617 
C          C       0.21960   0.31401   0.26346 
H          H       0.14926   0.27179   0.15258 
H          H       0.19400   0.23181   0.14497 
H          H       0.22763   0.33573   0.29504 
C          C       0.68374   0.80764   0.22714 
C          C       0.67489   0.77715   0.18177 
C          C       0.70094   0.75389   0.17723 
C          C       0.73648   0.76124   0.21600 
N          N       0.74419   0.79115   0.25617 
C          C       0.71960   0.81401   0.26346 
H          H       0.64926   0.77179   0.15258 
H          H       0.69400   0.73181   0.14497 
H          H       0.72763   0.83573   0.29504 
C          C       0.81629   0.69235   0.22714 
C          C       0.82514   0.72285   0.18177 
C          C       0.79909   0.74611   0.17723 
C          C       0.76354   0.73876   0.21600 
N          N       0.75583   0.70885   0.25617 
C          C       0.78042   0.68599   0.26346 
H          H       0.85077   0.72821   0.15258 
H          H       0.80603   0.76819   0.14497 
H          H       0.77240   0.66427   0.29504 
C          C       0.31629   0.19235   0.22714 
C          C       0.32514   0.22285   0.18177 
C          C       0.29909   0.24611   0.17723 
C          C       0.26354   0.23876   0.21600 
N          N       0.25583   0.20885   0.25617 
C          C       0.28042   0.18599   0.26346 
H          H       0.35077   0.22821   0.15258 
H          H       0.30603   0.26819   0.14497 
H          H       0.27240   0.16427   0.29504 
C          C       0.18374   0.69235   0.22714 
C          C       0.17489   0.72285   0.18177 
C          C       0.20094   0.74611   0.17723 
C          C       0.23648   0.73876   0.21600 
N          N       0.24419   0.70885   0.25617 
C          C       0.21960   0.68599   0.26346 
H          H       0.14926   0.72821   0.15258 
H          H       0.19400   0.76819   0.14497 
H          H       0.22763   0.66427   0.29504 
C          C       0.68374   0.19235   0.22714 
C          C       0.67489   0.22285   0.18177 
C          C       0.70094   0.24611   0.17723 
C          C       0.73648   0.23876   0.21600 
N          N       0.74419   0.20885   0.25617 
C          C       0.71960   0.18599   0.26346 
H          H       0.64926   0.22821   0.15258 
H          H       0.69400   0.26819   0.14497 
H          H       0.72763   0.16427   0.29504 
C          C       0.81629   0.30765   0.22714 
C          C       0.82514   0.27715   0.18177 
C          C       0.79909   0.25389   0.17723 
C          C       0.76354   0.26124   0.21600 
N          N       0.75583   0.29115   0.25617 
C          C       0.78042   0.31401   0.26346 
H          H       0.85077   0.27179   0.15258 
H          H       0.80603   0.23181   0.14497 
H          H       0.77240   0.33573   0.29504 
C          C       0.31629   0.80764   0.22714 
C          C       0.32514   0.77715   0.18177 
C          C       0.29909   0.75389   0.17723 
C          C       0.26354   0.76124   0.21600 
N          N       0.25583   0.79115   0.25617 
C          C       0.28042   0.81401   0.26346 
H          H       0.35077   0.77179   0.15258 
H          H       0.30603   0.73181   0.14497 
H          H       0.27240   0.83573   0.29504 
C          C       0.96743   0.46668   0.73194 
C          C       0.46743   0.96668   0.73194 
C          C       0.03260   0.53332   0.73194 
C          C       0.53260   0.03332   0.73194 
C          C       0.96743   0.53332   0.73194 
C          C       0.46743   0.03332   0.73194 
C          C       0.03260   0.46668   0.73194 
C          C       0.53260   0.96668   0.73194 
C          C       0.93634   0.51614   0.70071 
C          C       0.43634   0.01614   0.70071 
C          C       0.06369   0.48386   0.70071 
C          C       0.56369   0.98386   0.70071 
C          C       0.93634   0.48386   0.70071 
C          C       0.43634   0.98386   0.70071 
C          C       0.06369   0.51614   0.70071 
C          C       0.56369   0.01614   0.70071 
C          C       0.96704   0.56598   0.75814 
C          C       0.46704   0.06598   0.75814 
C          C       0.03298   0.43402   0.75814 
C          C       0.53298   0.93402   0.75814 
C          C       0.96704   0.43402   0.75814 
C          C       0.46704   0.93402   0.75814 
C          C       0.03298   0.56598   0.75814 
C          C       0.53298   0.06598   0.75814 
C          C       0.93614   0.58486   0.76717 
C          C       0.43614   0.08486   0.76717 
C          C       0.06389   0.41514   0.76717 
C          C       0.56389   0.91514   0.76717 
C          C       0.93614   0.41514   0.76717 
C          C       0.43614   0.91514   0.76717 
C          C       0.06389   0.58486   0.76717 
C          C       0.56389   0.08486   0.76717 
C          C       0.90592   0.57621   0.86155 
C          C       0.40592   0.07621   0.86155 
C          C       0.09411   0.42379   0.86155 
C          C       0.59411   0.92379   0.86155 
C          C       0.90592   0.42379   0.86155 
C          C       0.40592   0.92379   0.86155 
C          C       0.09411   0.57621   0.86155 
C          C       0.59411   0.07621   0.86155 
C          C       0.87546   0.59488   0.86820 
C          C       0.37546   0.09488   0.86820 
C          C       0.12457   0.40512   0.86820 
C          C       0.62457   0.90512   0.86820 
C          C       0.87546   0.40512   0.86820 
C          C       0.37546   0.90512   0.86820 
C          C       0.12457   0.59488   0.86820 
C          C       0.62457   0.09488   0.86820 
C          C       0.87450   0.62387   0.78617 
C          C       0.37450   0.12387   0.78617 
C          C       0.12553   0.37613   0.78617 
C          C       0.62553   0.87613   0.78617 
C          C       0.87450   0.37613   0.78617 
C          C       0.37450   0.87613   0.78617 
C          C       0.12553   0.62387   0.78617 
C          C       0.62553   0.12387   0.78617 
C          C       0.90484   0.63318   0.69505 
C          C       0.40484   0.13318   0.69505 
C          C       0.09519   0.36682   0.69505 
C          C       0.59519   0.86682   0.69505 
C          C       0.90484   0.36682   0.69505 
C          C       0.40484   0.86682   0.69505 
C          C       0.09519   0.63318   0.69505 
C          C       0.59519   0.13318   0.69505 
C          C       0.93474   0.61390   0.68402 
C          C       0.43475   0.11390   0.68402 
C          C       0.06528   0.38610   0.68402 
C          C       0.56528   0.88610   0.68402 
C          C       0.93474   0.38610   0.68402 
C          C       0.43475   0.88610   0.68402 
C          C       0.06528   0.61390   0.68402 
C          C       0.56528   0.11390   0.68402 
C          C       0.84402   0.64253   0.79722 
C          C       0.34402   0.14253   0.79722 
C          C       0.15601   0.35746   0.79722 
C          C       0.65601   0.85747   0.79722 
C          C       0.84402   0.35746   0.79722 
C          C       0.34402   0.85747   0.79722 
C          C       0.15601   0.64253   0.79722 
C          C       0.65601   0.14253   0.79722 
H          H       0.91279   0.52679   0.67826 
H          H       0.41279   0.02679   0.67826 
H          H       0.08724   0.47321   0.67826 
H          H       0.58724   0.97321   0.67826 
H          H       0.91279   0.47321   0.67826 
H          H       0.41279   0.97321   0.67826 
H          H       0.08724   0.52679   0.67826 
H          H       0.58724   0.02679   0.67826 
H          H       0.90590   0.55614   0.92875 
H          H       0.40590   0.05614   0.92875 
H          H       0.09413   0.44386   0.92875 
H          H       0.59413   0.94386   0.92875 
H          H       0.90590   0.44386   0.92875 
H          H       0.40590   0.94386   0.92875 
H          H       0.09413   0.55614   0.92875 
H          H       0.59413   0.05614   0.92875 
H          H       0.85417   0.58729   0.93654 
H          H       0.35417   0.08729   0.93654 
H          H       0.14586   0.41271   0.93654 
H          H       0.64585   0.91271   0.93654 
H          H       0.85417   0.41271   0.93654 
H          H       0.35417   0.91271   0.93654 
H          H       0.14586   0.58729   0.93654 
H          H       0.64585   0.08729   0.93654 
H          H       0.90520   0.65400   0.63359 
H          H       0.40520   0.15400   0.63359 
H          H       0.09483   0.34600   0.63359 
H          H       0.59483   0.84600   0.63359 
H          H       0.90520   0.34600   0.63359 
H          H       0.40520   0.84600   0.63359 
H          H       0.09483   0.65400   0.63359 
H          H       0.59483   0.15400   0.63359 
H          H       0.95558   0.62129   0.61210 
H          H       0.45559   0.12129   0.61210 
H          H       0.04444   0.37871   0.61210 
H          H       0.54444   0.87871   0.61210 
H          H       0.95558   0.37871   0.61210 
H          H       0.45559   0.87871   0.61210 
H          H       0.04444   0.62129   0.61210 
H          H       0.54444   0.12129   0.61210 
H          H       0.82229   0.63404   0.85869 
H          H       0.32229   0.13404   0.85869 
H          H       0.17773   0.36596   0.85869 
H          H       0.67773   0.86596   0.85869 
H          H       0.82229   0.36596   0.85869 
H          H       0.32229   0.86596   0.85869 
H          H       0.17773   0.63404   0.85869 
H          H       0.67773   0.13404   0.85869 
N          N       0.84294   0.67143   0.73180 
N          N       0.34294   0.17143   0.73180 
N          N       0.15709   0.32857   0.73180 
N          N       0.65708   0.82857   0.73180 
N          N       0.84294   0.32857   0.73180 
N          N       0.34294   0.82857   0.73180 
N          N       0.15709   0.67143   0.73180 
N          N       0.65708   0.17143   0.73180 
C          C       0.00001   0.58086   0.77994 
C          C       0.50001   0.08086   0.77994 
C          C       0.00001   0.41914   0.77994 
C          C       0.50001   0.91914   0.77994 
C          C       0.00001   0.48339   0.73298 
C          C       0.50001   0.98339   0.73298 
C          C       0.00001   0.51661   0.73298 
C          C       0.50001   0.01661   0.73298 
H          H       0.00001   0.60377   0.81299 
H          H       0.50001   0.10377   0.81299 
H          H       0.00001   0.39623   0.81299 
H          H       0.50001   0.89623   0.81299 
C          C       0.18374   0.30765   0.72714 
C          C       0.17489   0.27715   0.68177 
C          C       0.20094   0.25389   0.67724 
C          C       0.23648   0.26124   0.71600 
N          N       0.24419   0.29115   0.75617 
C          C       0.21960   0.31401   0.76346 
H          H       0.14926   0.27179   0.65258 
H          H       0.19400   0.23181   0.64497 
H          H       0.22763   0.33573   0.79504 
C          C       0.68374   0.80764   0.72714 
C          C       0.67489   0.77715   0.68177 
C          C       0.70094   0.75389   0.67724 
C          C       0.73648   0.76124   0.71600 
N          N       0.74419   0.79115   0.75617 
C          C       0.71960   0.81401   0.76346 
H          H       0.64926   0.77179   0.65258 
H          H       0.69400   0.73181   0.64497 
H          H       0.72763   0.83573   0.79504 
C          C       0.81629   0.69235   0.72714 
C          C       0.82514   0.72285   0.68177 
C          C       0.79909   0.74611   0.67724 
C          C       0.76354   0.73876   0.71600 
N          N       0.75583   0.70885   0.75617 
C          C       0.78042   0.68599   0.76346 
H          H       0.85077   0.72821   0.65258 
H          H       0.80603   0.76819   0.64497 
H          H       0.77240   0.66427   0.79504 
C          C       0.31629   0.19235   0.72714 
C          C       0.32514   0.22285   0.68177 
C          C       0.29909   0.24611   0.67724 
C          C       0.26354   0.23876   0.71600 
N          N       0.25583   0.20885   0.75617 
C          C       0.28042   0.18599   0.76346 
H          H       0.35077   0.22821   0.65258 
H          H       0.30603   0.26819   0.64497 
H          H       0.27240   0.16427   0.79504 
C          C       0.18374   0.69235   0.72714 
C          C       0.17489   0.72285   0.68177 
C          C       0.20094   0.74611   0.67724 
C          C       0.23648   0.73876   0.71600 
N          N       0.24419   0.70885   0.75617 
C          C       0.21960   0.68599   0.76346 
H          H       0.14926   0.72821   0.65258 
H          H       0.19400   0.76819   0.64497 
H          H       0.22763   0.66427   0.79504 
C          C       0.68374   0.19235   0.72714 
C          C       0.67489   0.22285   0.68177 
C          C       0.70094   0.24611   0.67724 
C          C       0.73648   0.23876   0.71600 
N          N       0.74419   0.20885   0.75617 
C          C       0.71960   0.18599   0.76346 
H          H       0.64926   0.22821   0.65258 
H          H       0.69400   0.26819   0.64497 
H          H       0.72763   0.16427   0.79504 
C          C       0.81629   0.30765   0.72714 
C          C       0.82514   0.27715   0.68177 
C          C       0.79909   0.25389   0.67724 
C          C       0.76354   0.26124   0.71600 
N          N       0.75583   0.29115   0.75617 
C          C       0.78042   0.31401   0.76346 
H          H       0.85077   0.27179   0.65258 
H          H       0.80603   0.23181   0.64497 
H          H       0.77240   0.33573   0.79504 
C          C       0.31629   0.80764   0.72714 
C          C       0.32514   0.77715   0.68177 
C          C       0.29909   0.75389   0.67724 
C          C       0.26354   0.76124   0.71600 
N          N       0.25583   0.79115   0.75617 
C          C       0.28042   0.81401   0.76346 
H          H       0.35077   0.77179   0.65258 
H          H       0.30603   0.73181   0.64497 
H          H       0.27240   0.83573   0.79504 
