data_MC-COF-NiPc-E1E7
_audit_creation_date              0000-00-00
_audit_creation_method            'LanYouShi'
_symmetry_space_group_name_H-M    'P1'
_cell_length_a                    27.3568993
_cell_length_b                    23.1049004
_cell_length_c                    3.4935000
_cell_angle_alpha                 90.0000000
_cell_angle_beta                  90.0000000
_cell_angle_gamma                 90.0000000
loop_
_atom_site_label
_atom_site_type_symbol
_atom_site_fract_x
_atom_site_fract_y
_atom_site_fract_z
_atom_site_U_iso_or_equiv
_atom_site_adp_type
_atom_site_occupancy
        C1          C  0.7394019  0.9696115  0.5000049    0.00000       Uiso       1.00
        C2          C  0.2605975  0.0303865  0.5000049    0.00000       Uiso       1.00
        C3          C  0.2605975  0.9696115  0.5000049    0.00000       Uiso       1.00
        C4          C  0.7394019  0.0303865  0.5000049    0.00000       Uiso       1.00
        C5          C  0.6955115  0.0622167  0.5000049    0.00000       Uiso       1.00
        C6          C  0.3044880  0.9377813  0.5000049    0.00000       Uiso       1.00
        C7          C  0.3044880  0.0622167  0.5000049    0.00000       Uiso       1.00
        C8          C  0.6955115  0.9377813  0.5000049    0.00000       Uiso       1.00
        C9          C  0.6516367  0.0302461  0.5000049    0.00000       Uiso       1.00
       C10          C  0.3483628  0.9697520  0.5000049    0.00000       Uiso       1.00
       C11          C  0.3483628  0.0302461  0.5000049    0.00000       Uiso       1.00
       C12          C  0.6516367  0.9697520  0.5000049    0.00000       Uiso       1.00
       C13          C  0.6030560  0.0479054  0.5000049    0.00000       Uiso       1.00
       C14          C  0.3969435  0.9520927  0.5000049    0.00000       Uiso       1.00
       C15          C  0.3969435  0.0479054  0.5000049    0.00000       Uiso       1.00
       C16          C  0.6030560  0.9520927  0.5000049    0.00000       Uiso       1.00
       C17          C  0.4999998  0.5614263  0.5000049    0.00000       Uiso       1.00
       C18          C  0.4999998  0.4385717  0.5000049    0.00000       Uiso       1.00
       C19          C  0.4555375  0.5304663  0.5000049    0.00000       Uiso       1.00
       C20          C  0.5444620  0.4695317  0.5000049    0.00000       Uiso       1.00
       C21          C  0.5444620  0.5304663  0.5000049    0.00000       Uiso       1.00
       C22          C  0.4555375  0.4695317  0.5000049    0.00000       Uiso       1.00
        H1          H  0.4228491  0.5519859  0.5000049    0.00000       Uiso       1.00
        H2          H  0.5771503  0.4480121  0.5000049    0.00000       Uiso       1.00
        H3          H  0.5771503  0.5519859  0.5000049    0.00000       Uiso       1.00
        H4          H  0.4228491  0.4480121  0.5000049    0.00000       Uiso       1.00
       C23          C  0.0259800  0.0000000  0.5000049    0.00000       Uiso       1.00
       C24          C  0.9740195  0.0000000  0.5000049    0.00000       Uiso       1.00
       C25          C  0.0256766  0.8941735  0.5000049    0.00000       Uiso       1.00
       C26          C  0.9743229  0.1058245  0.5000049    0.00000       Uiso       1.00
       C27          C  0.9743229  0.8941735  0.5000049    0.00000       Uiso       1.00
       C28          C  0.0256766  0.1058245  0.5000049    0.00000       Uiso       1.00
       C29          C  0.0519373  0.9467382  0.5000049    0.00000       Uiso       1.00
       C30          C  0.9480622  0.0532598  0.5000049    0.00000       Uiso       1.00
       C31          C  0.9480622  0.9467382  0.5000049    0.00000       Uiso       1.00
       C32          C  0.0519373  0.0532598  0.5000049    0.00000       Uiso       1.00
       C33          C  0.1035283  0.9472844  0.5000049    0.00000       Uiso       1.00
       C34          C  0.8964713  0.0527136  0.5000049    0.00000       Uiso       1.00
       C35          C  0.8964713  0.9472844  0.5000049    0.00000       Uiso       1.00
       C36          C  0.1035283  0.0527136  0.5000049    0.00000       Uiso       1.00
        H5          H  0.1222519  0.9088938  0.5000049    0.00000       Uiso       1.00
        H6          H  0.8777476  0.0911042  0.5000049    0.00000       Uiso       1.00
        H7          H  0.8777476  0.9088938  0.5000049    0.00000       Uiso       1.00
        H8          H  0.1222519  0.0911042  0.5000049    0.00000       Uiso       1.00
        H9          H  0.0437154  0.8553641  0.5000049    0.00000       Uiso       1.00
       H10          H  0.9562842  0.1446339  0.5000049    0.00000       Uiso       1.00
       H11          H  0.9562842  0.8553641  0.5000049    0.00000       Uiso       1.00
       H12          H  0.0437154  0.1446339  0.5000049    0.00000       Uiso       1.00
       Ni1         Ni  0.4999998  0.0000000  0.5000049    0.00000       Uiso       1.00
        O1          O  0.7855652  0.0508913  0.5000049    0.00000       Uiso       1.00
        O1          O  0.2144343  0.9491067  0.5000049    0.00000       Uiso       1.00
        O1          O  0.2144343  0.0508913  0.5000049    0.00000       Uiso       1.00
        O1          O  0.7855652  0.9491067  0.5000049    0.00000       Uiso       1.00
        H1          H  0.6956427  0.1064235  0.5000049    0.00000       Uiso       1.00
        H1          H  0.3043568  0.8935745  0.5000049    0.00000       Uiso       1.00
        H1          H  0.3043568  0.1064235  0.5000049    0.00000       Uiso       1.00
        H1          H  0.6956427  0.8935745  0.5000049    0.00000       Uiso       1.00
        C5          C  0.4743368  0.7165907  0.5000049    0.00000       Uiso       1.00
        C6          C  0.5525538  0.7685483  0.5000049    0.00000       Uiso       1.00
        C7          C  0.5255907  0.8205222  0.5000049    0.00000       Uiso       1.00
        C8          C  0.5407412  0.8779875  0.5000049    0.00000       Uiso       1.00
        C5          C  0.5256627  0.2834073  0.5000049    0.00000       Uiso       1.00
        C6          C  0.4474457  0.2314496  0.5000049    0.00000       Uiso       1.00
        C7          C  0.4744087  0.1794758  0.5000049    0.00000       Uiso       1.00
        C8          C  0.4592583  0.1220105  0.5000049    0.00000       Uiso       1.00
        C5          C  0.5256627  0.7165907  0.5000049    0.00000       Uiso       1.00
        C6          C  0.4474457  0.7685483  0.5000049    0.00000       Uiso       1.00
        C7          C  0.4744087  0.8205222  0.5000049    0.00000       Uiso       1.00
        C8          C  0.4592583  0.8779875  0.5000049    0.00000       Uiso       1.00
        C5          C  0.4743368  0.2834073  0.5000049    0.00000       Uiso       1.00
        C6          C  0.5525538  0.2314496  0.5000049    0.00000       Uiso       1.00
        C7          C  0.5255907  0.1794758  0.5000049    0.00000       Uiso       1.00
        C8          C  0.5407412  0.1220105  0.5000049    0.00000       Uiso       1.00
        O2          O  0.5429847  0.6619304  0.5000049    0.00000       Uiso       1.00
        O2          O  0.4570148  0.3380676  0.5000049    0.00000       Uiso       1.00
        O2          O  0.4570148  0.6619304  0.5000049    0.00000       Uiso       1.00
        O2          O  0.5429847  0.3380676  0.5000049    0.00000       Uiso       1.00
        H2          H  0.5898901  0.7683681  0.5000049    0.00000       Uiso       1.00
        H2          H  0.4101094  0.2316300  0.5000049    0.00000       Uiso       1.00
        H2          H  0.4101094  0.7683681  0.5000049    0.00000       Uiso       1.00
        H2          H  0.5898901  0.2316300  0.5000049    0.00000       Uiso       1.00
        N1          N  0.5875410  0.1034016  0.5000049    0.00000       Uiso       1.00
        N1          N  0.4124584  0.8965964  0.5000049    0.00000       Uiso       1.00
        N1          N  0.4124584  0.1034016  0.5000049    0.00000       Uiso       1.00
        N1          N  0.5875410  0.8965964  0.5000049    0.00000       Uiso       1.00
        B1          B  0.8160901  0.0000000  0.5000049    0.00000       Uiso       1.00
        B1          B  0.1839094  0.0000000  0.5000049    0.00000       Uiso       1.00
        N5          N  0.5748879  0.0000000  0.5000049    0.00000       Uiso       1.00
        N5          N  0.4251116  0.0000000  0.5000049    0.00000       Uiso       1.00
        B3          B  0.4999998  0.6257969  0.5000049    0.00000       Uiso       1.00
        B3          B  0.4999998  0.3742011  0.5000049    0.00000       Uiso       1.00
        N7          N  0.4999998  0.9106893  0.5000049    0.00000       Uiso       1.00
        N7          N  0.4999998  0.0893087  0.5000049    0.00000       Uiso       1.00
       N17          C  0.1295324  0.0000000  0.5000049    0.00000       Uiso       1.00
       N17          C  0.8704670  0.0000000  0.5000049    0.00000       Uiso       1.00
