data_crystal
 
_cell_length_a    24.17790
_cell_length_b    24.17800
_cell_length_c    6.80000
_cell_angle_alpha 90.00000
_cell_angle_beta  90.00000
_cell_angle_gamma 59.99990
 
_symmetry_space_group_name_Hall 'P 1'
_symmetry_space_group_name_H-M  'P 1'
 
loop_
_symmetry_equiv_pos_as_xyz
 'x,y,z' 
 
loop_
_atom_site_label
_atom_site_type_symbol
_atom_site_fract_x
_atom_site_fract_y
_atom_site_fract_z
_atom_site_charge
C          C       0.41079   0.39725   0.73189   0.0000000000
N          N       0.39427   0.46627   0.73155   0.0000000000
C          C       0.44672   0.48283   0.73313   0.0000000000
C          C       0.42946   0.55335   0.73580   0.0000000000
C          C       0.48279   0.57052   0.73847   0.0000000000
H          H       0.46293   0.35763   0.73264   0.0000000000
H          H       0.37740   0.59266   0.73594   0.0000000000
H          H       0.47005   0.62279   0.74077   0.0000000000
C          C       0.58923   0.60277   0.73846   0.0000000000
N          N       0.60572   0.53375   0.73838   0.0000000000
C          C       0.55327   0.51716   0.73761   0.0000000000
C          C       0.57054   0.44663   0.73508   0.0000000000
C          C       0.51721   0.42946   0.73258   0.0000000000
H          H       0.53710   0.64242   0.73866   0.0000000000
H          H       0.62260   0.40732   0.73471   0.0000000000
H          H       0.52994   0.37720   0.73027   0.0000000000
C          C       0.19202   0.41073   0.72905   0.0000000000
N          N       0.13952   0.39421   0.72882   0.0000000000
C          C       0.07050   0.44666   0.73084   0.0000000000
C          C       0.01724   0.42940   0.73363   0.0000000000
C          C       0.94674   0.48273   0.73677   0.0000000000
H          H       0.17950   0.46287   0.73006   0.0000000000
H          H       0.02999   0.37734   0.73352   0.0000000000
H          H       0.90722   0.46999   0.73915   0.0000000000
C          C       0.80806   0.58916   0.73766   0.0000000000
N          N       0.86059   0.60566   0.73747   0.0000000000
C          C       0.92962   0.55321   0.73624   0.0000000000
C          C       0.98288   0.57048   0.73360   0.0000000000
C          C       0.05338   0.51715   0.73064   0.0000000000
H          H       0.82053   0.53704   0.73761   0.0000000000
H          H       0.97014   0.62254   0.73349   0.0000000000
H          H       0.09291   0.52988   0.72825   0.0000000000
C          C       0.39730   0.19196   0.73211   0.0000000000
N          N       0.46633   0.13946   0.73143   0.0000000000
C          C       0.48289   0.07044   0.73312   0.0000000000
C          C       0.55341   0.01718   0.73545   0.0000000000
C          C       0.57059   0.94668   0.73823   0.0000000000
H          H       0.35769   0.17944   0.73320   0.0000000000
H          H       0.59272   0.02993   0.73525   0.0000000000
H          H       0.62285   0.90716   0.74028   0.0000000000
C          C       0.60283   0.80799   0.73845   0.0000000000
N          N       0.53381   0.86053   0.73872   0.0000000000
C          C       0.51723   0.92955   0.73782   0.0000000000
C          C       0.44669   0.98282   0.73565   0.0000000000
C          C       0.42952   0.05332   0.73303   0.0000000000
H          H       0.64249   0.82047   0.73832   0.0000000000
H          H       0.40738   0.97008   0.73562   0.0000000000
H          H       0.37726   0.09285   0.73098   0.0000000000
C          C       0.63003   0.63641   0.73832   0.0000000000
C          C       0.63647   0.73356   0.73832   0.0000000000
C          C       0.73362   0.62996   0.73794   0.0000000000
C          C       0.59996   0.70323   0.73845   0.0000000000
C          C       0.70329   0.69681   0.73806   0.0000000000
C          C       0.69687   0.59989   0.73807   0.0000000000
H          H       0.72024   0.54818   0.73797   0.0000000000
H          H       0.54824   0.73158   0.73864   0.0000000000
H          H       0.73164   0.72017   0.73797   0.0000000000
C          C       0.37002   0.36358   0.73143   0.0000000000
C          C       0.36364   0.26639   0.73154   0.0000000000
C          C       0.26645   0.36996   0.73008   0.0000000000
C          C       0.40012   0.29675   0.73195   0.0000000000
C          C       0.29681   0.30312   0.73061   0.0000000000
C          C       0.30318   0.40006   0.73050   0.0000000000
H          H       0.27979   0.45178   0.73010   0.0000000000
H          H       0.45184   0.26843   0.73267   0.0000000000
H          H       0.26848   0.27973   0.73028   0.0000000000
C          C       0.41079   0.39725   1.23189   0.0000000000
N          N       0.39427   0.46627   1.23155   0.0000000000
C          C       0.44672   0.48283   1.23313   0.0000000000
C          C       0.42946   0.55335   1.23580   0.0000000000
C          C       0.48279   0.57052   1.23847   0.0000000000
H          H       0.46293   0.35763   1.23264   0.0000000000
H          H       0.37740   0.59266   1.23594   0.0000000000
H          H       0.47005   0.62279   1.24077   0.0000000000
C          C       0.58923   0.60277   1.23846   0.0000000000
N          N       0.60572   0.53375   1.23839   0.0000000000
C          C       0.55327   0.51716   1.23761   0.0000000000
C          C       0.57054   0.44663   1.23508   0.0000000000
C          C       0.51721   0.42946   1.23258   0.0000000000
H          H       0.53710   0.64242   1.23866   0.0000000000
H          H       0.62260   0.40732   1.23471   0.0000000000
H          H       0.52994   0.37720   1.23027   0.0000000000
C          C       0.19202   0.41073   1.22905   0.0000000000
N          N       0.13952   0.39421   1.22882   0.0000000000
C          C       0.07050   0.44666   1.23084   0.0000000000
C          C       0.01724   0.42940   1.23363   0.0000000000
C          C       0.94674   0.48273   1.23677   0.0000000000
H          H       0.17950   0.46287   1.23005   0.0000000000
H          H       0.02999   0.37734   1.23352   0.0000000000
H          H       0.90722   0.46999   1.23915   0.0000000000
C          C       0.80806   0.58916   1.23766   0.0000000000
N          N       0.86059   0.60566   1.23748   0.0000000000
C          C       0.92962   0.55321   1.23624   0.0000000000
C          C       0.98288   0.57048   1.23360   0.0000000000
C          C       0.05338   0.51715   1.23064   0.0000000000
H          H       0.82053   0.53704   1.23761   0.0000000000
H          H       0.97014   0.62254   1.23349   0.0000000000
H          H       0.09291   0.52988   1.22825   0.0000000000
C          C       0.39730   0.19196   1.23212   0.0000000000
N          N       0.46633   0.13946   1.23143   0.0000000000
C          C       0.48289   0.07044   1.23312   0.0000000000
C          C       0.55341   0.01718   1.23545   0.0000000000
C          C       0.57059   0.94668   1.23823   0.0000000000
H          H       0.35769   0.17944   1.23320   0.0000000000
H          H       0.59272   0.02993   1.23525   0.0000000000
H          H       0.62285   0.90716   1.24028   0.0000000000
C          C       0.60283   0.80799   1.23845   0.0000000000
N          N       0.53381   0.86053   1.23872   0.0000000000
C          C       0.51723   0.92955   1.23782   0.0000000000
C          C       0.44669   0.98282   1.23565   0.0000000000
C          C       0.42952   0.05332   1.23303   0.0000000000
H          H       0.64249   0.82047   1.23831   0.0000000000
H          H       0.40738   0.97008   1.23561   0.0000000000
H          H       0.37726   0.09285   1.23098   0.0000000000
C          C       0.63003   0.63641   1.23832   0.0000000000
C          C       0.63647   0.73356   1.23832   0.0000000000
C          C       0.73362   0.62996   1.23794   0.0000000000
C          C       0.59996   0.70323   1.23845   0.0000000000
C          C       0.70329   0.69681   1.23806   0.0000000000
C          C       0.69687   0.59989   1.23807   0.0000000000
H          H       0.72024   0.54818   1.23797   0.0000000000
H          H       0.54824   0.73158   1.23864   0.0000000000
H          H       0.73164   0.72017   1.23797   0.0000000000
C          C       0.37002   0.36358   1.23143   0.0000000000
C          C       0.36364   0.26639   1.23154   0.0000000000
C          C       0.26645   0.36996   1.23009   0.0000000000
C          C       0.40012   0.29675   1.23195   0.0000000000
C          C       0.29681   0.30312   1.23061   0.0000000000
C          C       0.30318   0.40006   1.23050   0.0000000000
H          H       0.27979   0.45178   1.23010   0.0000000000
H          H       0.45184   0.26843   1.23267   0.0000000000
H          H       0.26848   0.27973   1.23029   0.0000000000
