data_MC-COF-TP-E12E71
_audit_creation_date              0000-00-00
_audit_creation_method            'LanYouShi'
_symmetry_space_group_name_H-M    'P1'
_cell_length_a                    60.7661018
_cell_length_b                    30.1693001
_cell_length_c                    3.5023999
_cell_angle_alpha                 90.0000000
_cell_angle_beta                  90.0000000
_cell_angle_gamma                 90.0000000
loop_
_atom_site_label
_atom_site_type_symbol
_atom_site_fract_x
_atom_site_fract_y
_atom_site_fract_z
_atom_site_U_iso_or_equiv
_atom_site_adp_type
_atom_site_occupancy
        C1          C  0.3420883  0.5238652  0.4999968    0.00000       Uiso       1.00
        C2          C  0.3420883  0.4761350  0.4999968    0.00000       Uiso       1.00
        C3          C  0.3628380  0.4536854  0.4999968    0.00000       Uiso       1.00
        C4          C  0.3628380  0.5463148  0.4999968    0.00000       Uiso       1.00
        C5          C  0.3826274  0.4771010  0.4999968    0.00000       Uiso       1.00
        C6          C  0.3826274  0.5228993  0.4999968    0.00000       Uiso       1.00
        C1          C  0.8420885  0.0238651  0.4999968    0.00000       Uiso       1.00
        C3          C  0.8628381  0.0463147  0.4999968    0.00000       Uiso       1.00
        C4          C  0.8826276  0.0228991  0.4999968    0.00000       Uiso       1.00
        C1          C  0.6579121  0.4761350  0.4999968    0.00000       Uiso       1.00
        C2          C  0.6579121  0.5238652  0.4999968    0.00000       Uiso       1.00
        C3          C  0.6371625  0.5463148  0.4999968    0.00000       Uiso       1.00
        C4          C  0.6371625  0.4536854  0.4999968    0.00000       Uiso       1.00
        C5          C  0.6173730  0.5228993  0.4999968    0.00000       Uiso       1.00
        C6          C  0.6173730  0.4771010  0.4999968    0.00000       Uiso       1.00
        C1          C  0.1579119  0.9761351  0.4999968    0.00000       Uiso       1.00
        C3          C  0.1371623  0.9536856  0.4999968    0.00000       Uiso       1.00
        C4          C  0.1173728  0.9771011  0.4999968    0.00000       Uiso       1.00
        C1          C  0.1579119  0.0238651  0.4999968    0.00000       Uiso       1.00
        C3          C  0.1371623  0.0463147  0.4999968    0.00000       Uiso       1.00
        C4          C  0.1173728  0.0228991  0.4999968    0.00000       Uiso       1.00
        C1          C  0.8420885  0.9761351  0.4999968    0.00000       Uiso       1.00
        C3          C  0.8628381  0.9536856  0.4999968    0.00000       Uiso       1.00
        C4          C  0.8826276  0.9771011  0.4999968    0.00000       Uiso       1.00
        O1          O  0.4033663  0.5388926  0.4999968    0.00000       Uiso       1.00
        O1          O  0.9033665  0.0388925  0.4999968    0.00000       Uiso       1.00
        O1          O  0.5966341  0.4611076  0.4999968    0.00000       Uiso       1.00
        O1          O  0.0966339  0.9611078  0.4999968    0.00000       Uiso       1.00
        O1          O  0.5966341  0.5388926  0.4999968    0.00000       Uiso       1.00
        O1          O  0.0966339  0.0388925  0.4999968    0.00000       Uiso       1.00
        O1          O  0.4033663  0.4611076  0.4999968    0.00000       Uiso       1.00
        O1          O  0.9033665  0.9611078  0.4999968    0.00000       Uiso       1.00
        B1          B  0.4171574  0.5000001  0.4999968    0.00000       Uiso       1.00
        B1          B  0.9171577  0.0000000  0.4999968    0.00000       Uiso       1.00
        B1          B  0.5828429  0.5000001  0.4999968    0.00000       Uiso       1.00
        B1          B  0.0828428  0.0000000  0.4999968    0.00000       Uiso       1.00
        C7          C  0.3216971  0.5475777  0.4999968    0.00000       Uiso       1.00
        C8          C  0.3011747  0.5237128  0.4999968    0.00000       Uiso       1.00
        C9          C  0.3209751  0.5949966  0.4999968    0.00000       Uiso       1.00
       C10          C  0.3010130  0.6178110  0.4999968    0.00000       Uiso       1.00
       C11          C  0.2813199  0.5949115  0.4999968    0.00000       Uiso       1.00
       C12          C  0.2811475  0.5486833  0.4999968    0.00000       Uiso       1.00
        C7          C  0.8216973  0.0475776  0.4999968    0.00000       Uiso       1.00
        C8          C  0.8011749  0.0237127  0.4999968    0.00000       Uiso       1.00
        C9          C  0.8209753  0.0949964  0.4999968    0.00000       Uiso       1.00
       C10          C  0.8010131  0.1178108  0.4999968    0.00000       Uiso       1.00
       C11          C  0.7813201  0.0949115  0.4999968    0.00000       Uiso       1.00
       C12          C  0.7811478  0.0486832  0.4999968    0.00000       Uiso       1.00
        C7          C  0.6783033  0.4524225  0.4999968    0.00000       Uiso       1.00
        C8          C  0.6988258  0.4762874  0.4999968    0.00000       Uiso       1.00
        C9          C  0.6790254  0.4050037  0.4999968    0.00000       Uiso       1.00
       C10          C  0.6989875  0.3821893  0.4999968    0.00000       Uiso       1.00
       C11          C  0.7186806  0.4050887  0.4999968    0.00000       Uiso       1.00
       C12          C  0.7188529  0.4513170  0.4999968    0.00000       Uiso       1.00
        C7          C  0.1783031  0.9524226  0.4999968    0.00000       Uiso       1.00
        C8          C  0.1988256  0.9762875  0.4999968    0.00000       Uiso       1.00
        C9          C  0.1790251  0.9050038  0.4999968    0.00000       Uiso       1.00
       C10          C  0.1989873  0.8821895  0.4999968    0.00000       Uiso       1.00
       C11          C  0.2186803  0.9050888  0.4999968    0.00000       Uiso       1.00
       C12          C  0.2188527  0.9513170  0.4999968    0.00000       Uiso       1.00
        C7          C  0.6783033  0.5475777  0.4999968    0.00000       Uiso       1.00
        C8          C  0.6988258  0.5237128  0.4999968    0.00000       Uiso       1.00
        C9          C  0.6790254  0.5949966  0.4999968    0.00000       Uiso       1.00
       C10          C  0.6989875  0.6178110  0.4999968    0.00000       Uiso       1.00
       C11          C  0.7186806  0.5949115  0.4999968    0.00000       Uiso       1.00
       C12          C  0.7188529  0.5486833  0.4999968    0.00000       Uiso       1.00
        C7          C  0.1783031  0.0475776  0.4999968    0.00000       Uiso       1.00
        C8          C  0.1988256  0.0237127  0.4999968    0.00000       Uiso       1.00
        C9          C  0.1790251  0.0949964  0.4999968    0.00000       Uiso       1.00
       C10          C  0.1989873  0.1178108  0.4999968    0.00000       Uiso       1.00
       C11          C  0.2186803  0.0949115  0.4999968    0.00000       Uiso       1.00
       C12          C  0.2188527  0.0486832  0.4999968    0.00000       Uiso       1.00
        C7          C  0.3216971  0.4524225  0.4999968    0.00000       Uiso       1.00
        C8          C  0.3011747  0.4762874  0.4999968    0.00000       Uiso       1.00
        C9          C  0.3209751  0.4050037  0.4999968    0.00000       Uiso       1.00
       C10          C  0.3010130  0.3821893  0.4999968    0.00000       Uiso       1.00
       C11          C  0.2813199  0.4050887  0.4999968    0.00000       Uiso       1.00
       C12          C  0.2811475  0.4513170  0.4999968    0.00000       Uiso       1.00
        C7          C  0.8216973  0.9524226  0.4999968    0.00000       Uiso       1.00
        C8          C  0.8011749  0.9762875  0.4999968    0.00000       Uiso       1.00
        C9          C  0.8209753  0.9050038  0.4999968    0.00000       Uiso       1.00
       C10          C  0.8010131  0.8821895  0.4999968    0.00000       Uiso       1.00
       C11          C  0.7813201  0.9050888  0.4999968    0.00000       Uiso       1.00
       C12          C  0.7811478  0.9513170  0.4999968    0.00000       Uiso       1.00
        O3          O  0.2640717  0.6230896  0.4999968    0.00000       Uiso       1.00
        O3          O  0.7640719  0.1230895  0.4999968    0.00000       Uiso       1.00
        O3          O  0.7359287  0.3769106  0.4999968    0.00000       Uiso       1.00
        O3          O  0.2359285  0.8769107  0.4999968    0.00000       Uiso       1.00
        O3          O  0.7359287  0.6230896  0.4999968    0.00000       Uiso       1.00
        O3          O  0.2359285  0.1230895  0.4999968    0.00000       Uiso       1.00
        O3          O  0.2640717  0.3769106  0.4999968    0.00000       Uiso       1.00
        O3          O  0.7640719  0.8769107  0.4999968    0.00000       Uiso       1.00
        B2          B  0.2739058  0.6665839  0.4999968    0.00000       Uiso       1.00
        B2          B  0.7739061  0.1665837  0.4999968    0.00000       Uiso       1.00
        B2          B  0.7260947  0.3334164  0.4999968    0.00000       Uiso       1.00
        B2          B  0.2260944  0.8334165  0.4999968    0.00000       Uiso       1.00
        B2          B  0.7260947  0.6665839  0.4999968    0.00000       Uiso       1.00
        B2          B  0.2260944  0.1665837  0.4999968    0.00000       Uiso       1.00
        B2          B  0.2739058  0.3334164  0.4999968    0.00000       Uiso       1.00
        B2          B  0.7739061  0.8334165  0.4999968    0.00000       Uiso       1.00
        O4          O  0.2975236  0.6619866  0.4999968    0.00000       Uiso       1.00
        O4          O  0.7975237  0.1619865  0.4999968    0.00000       Uiso       1.00
        O4          O  0.7024769  0.3380136  0.4999968    0.00000       Uiso       1.00
        O4          O  0.2024767  0.8380137  0.4999968    0.00000       Uiso       1.00
        O4          O  0.7024769  0.6619866  0.4999968    0.00000       Uiso       1.00
        O4          O  0.2024767  0.1619865  0.4999968    0.00000       Uiso       1.00
        O4          O  0.2975236  0.3380136  0.4999968    0.00000       Uiso       1.00
        O4          O  0.7975237  0.8380137  0.4999968    0.00000       Uiso       1.00
        H1          H  0.3644781  0.4202175  0.4999968    0.00000       Uiso       1.00
        H2          H  0.3644781  0.5797828  0.4999968    0.00000       Uiso       1.00
        H3          H  0.3345456  0.6145900  0.4999968    0.00000       Uiso       1.00
        H4          H  0.3345456  0.3854102  0.4999968    0.00000       Uiso       1.00
        H5          H  0.2659377  0.5348088  0.4999968    0.00000       Uiso       1.00
        H6          H  0.2659377  0.4651914  0.4999968    0.00000       Uiso       1.00
        H1          H  0.8644783  0.9202176  0.4999968    0.00000       Uiso       1.00
        H3          H  0.8345459  0.8854103  0.4999968    0.00000       Uiso       1.00
        H4          H  0.7659379  0.9651915  0.4999968    0.00000       Uiso       1.00
        H1          H  0.6355224  0.5797828  0.4999968    0.00000       Uiso       1.00
        H2          H  0.6355224  0.4202175  0.4999968    0.00000       Uiso       1.00
        H3          H  0.6654547  0.3854102  0.4999968    0.00000       Uiso       1.00
        H4          H  0.6654547  0.6145900  0.4999968    0.00000       Uiso       1.00
        H5          H  0.7340628  0.4651914  0.4999968    0.00000       Uiso       1.00
        H6          H  0.7340628  0.5348088  0.4999968    0.00000       Uiso       1.00
        H1          H  0.1355221  0.0797826  0.4999968    0.00000       Uiso       1.00
        H3          H  0.1654546  0.1145899  0.4999968    0.00000       Uiso       1.00
        H4          H  0.2340626  0.0348087  0.4999968    0.00000       Uiso       1.00
        H1          H  0.1355221  0.9202176  0.4999968    0.00000       Uiso       1.00
        H3          H  0.1654546  0.8854103  0.4999968    0.00000       Uiso       1.00
        H4          H  0.2340626  0.9651915  0.4999968    0.00000       Uiso       1.00
        H1          H  0.8644783  0.0797826  0.4999968    0.00000       Uiso       1.00
        H3          H  0.8345459  0.1145899  0.4999968    0.00000       Uiso       1.00
        H4          H  0.7659379  0.0348087  0.4999968    0.00000       Uiso       1.00
        C1          C  0.5583619  0.5000001  0.4999968    0.00000       Uiso       1.00
        C2          C  0.0583617  0.0000000  0.4999968    0.00000       Uiso       1.00
        C3          C  0.4416385  0.5000001  0.4999968    0.00000       Uiso       1.00
        C4          C  0.9416387  0.0000000  0.4999968    0.00000       Uiso       1.00
        C5          C  0.5466588  0.5403581  0.4999968    0.00000       Uiso       1.00
        C6          C  0.0466586  0.0403580  0.4999968    0.00000       Uiso       1.00
        C7          C  0.4533416  0.4596421  0.4999968    0.00000       Uiso       1.00
        C8          C  0.9533418  0.9596422  0.4999968    0.00000       Uiso       1.00
        C9          C  0.4533416  0.5403581  0.4999968    0.00000       Uiso       1.00
       C10          C  0.9533418  0.0403580  0.4999968    0.00000       Uiso       1.00
       C11          C  0.5466588  0.4596421  0.4999968    0.00000       Uiso       1.00
       C12          C  0.0466586  0.9596422  0.4999968    0.00000       Uiso       1.00
       C13          C  0.5234191  0.4592266  0.4999968    0.00000       Uiso       1.00
       C14          C  0.0234188  0.9592267  0.4999968    0.00000       Uiso       1.00
       C15          C  0.4765814  0.5407736  0.4999968    0.00000       Uiso       1.00
       C16          C  0.9765816  0.0407735  0.4999968    0.00000       Uiso       1.00
       C17          C  0.4765814  0.4592266  0.4999968    0.00000       Uiso       1.00
       C18          C  0.9765816  0.9592267  0.4999968    0.00000       Uiso       1.00
       C19          C  0.5234191  0.5407736  0.4999968    0.00000       Uiso       1.00
       C20          C  0.0234188  0.0407735  0.4999968    0.00000       Uiso       1.00
        H1          H  0.5551451  0.5696790  0.4999968    0.00000       Uiso       1.00
        H2          H  0.0551449  0.0696788  0.4999968    0.00000       Uiso       1.00
        H3          H  0.4448553  0.4303213  0.4999968    0.00000       Uiso       1.00
        H4          H  0.9448555  0.9303215  0.4999968    0.00000       Uiso       1.00
        H5          H  0.4448553  0.5696790  0.4999968    0.00000       Uiso       1.00
        H6          H  0.9448555  0.0696788  0.4999968    0.00000       Uiso       1.00
        H7          H  0.5551451  0.4303213  0.4999968    0.00000       Uiso       1.00
        H8          H  0.0551449  0.9303215  0.4999968    0.00000       Uiso       1.00
       C21          C  0.5117086  0.5000001  0.4999968    0.00000       Uiso       1.00
       C22          C  0.0117084  0.0000000  0.4999968    0.00000       Uiso       1.00
       C23          C  0.4882918  0.5000001  0.4999968    0.00000       Uiso       1.00
       C24          C  0.9882920  0.0000000  0.4999968    0.00000       Uiso       1.00
       C25          C  0.4884406  0.5809740  0.4999968    0.00000       Uiso       1.00
       C26          C  0.9884408  0.0809738  0.4999968    0.00000       Uiso       1.00
       C27          C  0.5115598  0.4190263  0.4999968    0.00000       Uiso       1.00
       C28          C  0.0115596  0.9190264  0.4999968    0.00000       Uiso       1.00
       C29          C  0.5115598  0.5809740  0.4999968    0.00000       Uiso       1.00
       C30          C  0.0115596  0.0809738  0.4999968    0.00000       Uiso       1.00
       C31          C  0.4884406  0.4190263  0.4999968    0.00000       Uiso       1.00
       C32          C  0.9884408  0.9190264  0.4999968    0.00000       Uiso       1.00
       C33          C  0.2383287  0.2092734  0.4999968    0.00000       Uiso       1.00
       C34          C  0.7383289  0.7092735  0.4999968    0.00000       Uiso       1.00
       C35          C  0.7616717  0.7907269  0.4999968    0.00000       Uiso       1.00
       C36          C  0.2616715  0.2907268  0.4999968    0.00000       Uiso       1.00
       C37          C  0.7616717  0.2092734  0.4999968    0.00000       Uiso       1.00
       C38          C  0.2616715  0.7092735  0.4999968    0.00000       Uiso       1.00
       C39          C  0.2383287  0.7907269  0.4999968    0.00000       Uiso       1.00
       C40          C  0.7383289  0.2907268  0.4999968    0.00000       Uiso       1.00
       C41          C  0.2268734  0.2499667  0.4999968    0.00000       Uiso       1.00
       C42          C  0.7268736  0.7499669  0.4999968    0.00000       Uiso       1.00
       C43          C  0.7731270  0.7500336  0.4999968    0.00000       Uiso       1.00
       C44          C  0.2731268  0.2500334  0.4999968    0.00000       Uiso       1.00
       C45          C  0.7731270  0.2499667  0.4999968    0.00000       Uiso       1.00
       C46          C  0.2731268  0.7499669  0.4999968    0.00000       Uiso       1.00
       C47          C  0.2268734  0.7500336  0.4999968    0.00000       Uiso       1.00
       C48          C  0.7268736  0.2500334  0.4999968    0.00000       Uiso       1.00
       C49          C  0.2384472  0.2903528  0.4999968    0.00000       Uiso       1.00
       C50          C  0.7384474  0.7903529  0.4999968    0.00000       Uiso       1.00
       C51          C  0.7615532  0.7096475  0.4999968    0.00000       Uiso       1.00
       C52          C  0.2615530  0.2096473  0.4999968    0.00000       Uiso       1.00
       C53          C  0.7615532  0.2903528  0.4999968    0.00000       Uiso       1.00
       C54          C  0.2615530  0.7903529  0.4999968    0.00000       Uiso       1.00
       C55          C  0.2384472  0.7096475  0.4999968    0.00000       Uiso       1.00
       C56          C  0.7384474  0.2096473  0.4999968    0.00000       Uiso       1.00
        H9          H  0.2100375  0.2506416  0.4999968    0.00000       Uiso       1.00
       H10          H  0.7100377  0.7506416  0.4999968    0.00000       Uiso       1.00
       H11          H  0.7899629  0.7493587  0.4999968    0.00000       Uiso       1.00
       H12          H  0.2899627  0.2493585  0.4999968    0.00000       Uiso       1.00
       H13          H  0.7899629  0.2506416  0.4999968    0.00000       Uiso       1.00
       H14          H  0.2899627  0.7506416  0.4999968    0.00000       Uiso       1.00
       H15          H  0.2100375  0.7493587  0.4999968    0.00000       Uiso       1.00
       H16          H  0.7100377  0.2493585  0.4999968    0.00000       Uiso       1.00
       H17          H  0.2702639  0.8193794  0.4999968    0.00000       Uiso       1.00
       H18          H  0.7702641  0.3193793  0.4999968    0.00000       Uiso       1.00
       H19          H  0.7297366  0.1806208  0.4999968    0.00000       Uiso       1.00
       H20          H  0.2297363  0.6806210  0.4999968    0.00000       Uiso       1.00
       H21          H  0.7297366  0.8193794  0.4999968    0.00000       Uiso       1.00
       H22          H  0.2297363  0.3193793  0.4999968    0.00000       Uiso       1.00
       H23          H  0.2702639  0.1806208  0.4999968    0.00000       Uiso       1.00
       H24          H  0.7702641  0.6806210  0.4999968    0.00000       Uiso       1.00
       H25          H  0.4803284  0.6107052  0.4999968    0.00000       Uiso       1.00
       H26          H  0.9803286  0.1107051  0.4999968    0.00000       Uiso       1.00
       H27          H  0.5196720  0.3892950  0.4999968    0.00000       Uiso       1.00
       H28          H  0.0196718  0.8892951  0.4999968    0.00000       Uiso       1.00
       H29          H  0.5196720  0.6107052  0.4999968    0.00000       Uiso       1.00
       H30          H  0.0196718  0.1107051  0.4999968    0.00000       Uiso       1.00
       H31          H  0.4803284  0.3892950  0.4999968    0.00000       Uiso       1.00
       H32          H  0.9803286  0.8892951  0.4999968    0.00000       Uiso       1.00
