data_MC-COF-TP-E22E41
_audit_creation_date              0000-00-00
_audit_creation_method            'LanYouShi'
_symmetry_space_group_name_H-M    'P1'
_cell_length_a                    30.2094002
_cell_length_b                    3.5107000
_cell_length_c                    31.4934998
_cell_angle_alpha                 90.0000000
_cell_angle_beta                  116.1611023
_cell_angle_gamma                 90.0000000
loop_
_atom_site_label
_atom_site_type_symbol
_atom_site_fract_x
_atom_site_fract_y
_atom_site_fract_z
_atom_site_U_iso_or_equiv
_atom_site_adp_type
_atom_site_occupancy
        C1          C  0.4879915  0.4999953  0.5277975    0.00000       Uiso       1.00
        C2          C  0.5356472  0.4999953  0.5277936    0.00000       Uiso       1.00
        C3          C  0.5785726  0.4999953  0.5724015    0.00000       Uiso       1.00
        C4          C  0.5747499  0.4999953  0.6149461    0.00000       Uiso       1.00
        C5          C  0.5290157  0.4999953  0.6149514    0.00000       Uiso       1.00
        C6          C  0.4860799  0.4999953  0.5724090    0.00000       Uiso       1.00
        O1          O  0.5335348  0.4999953  0.6595358    0.00000       Uiso       1.00
        B1          B  0.5860038  0.4999953  0.6891705    0.00000       Uiso       1.00
        O2          O  0.6112198  0.4999953  0.6595262    0.00000       Uiso       1.00
        C7          C  0.4441775  0.4999953  0.4839537    0.00000       Uiso       1.00
        C8          C  0.4476900  0.4999953  0.4398110    0.00000       Uiso       1.00
        C9          C  0.3961419  0.4999953  0.4824426    0.00000       Uiso       1.00
       C10          C  0.3536462  0.4999953  0.4395528    0.00000       Uiso       1.00
       C11          C  0.3569374  0.4999953  0.3971694    0.00000       Uiso       1.00
       C12          C  0.4029338  0.4999953  0.3967660    0.00000       Uiso       1.00
        O3          O  0.3116574  0.4999953  0.3601869    0.00000       Uiso       1.00
        B2          B  0.2780235  0.4999953  0.3814385    0.00000       Uiso       1.00
        O4          O  0.3061565  0.4999953  0.4321778    0.00000       Uiso       1.00
       C13          C  0.5391497  0.4999953  0.4839463    0.00000       Uiso       1.00
       C14          C  0.4950533  0.4999953  0.4398074    0.00000       Uiso       1.00
       C15          C  0.5002313  0.4999953  0.3967586    0.00000       Uiso       1.00
       C16          C  0.5465950  0.4999953  0.3971544    0.00000       Uiso       1.00
       C17          C  0.5888532  0.4999953  0.4395336    0.00000       Uiso       1.00
       C18          C  0.5857927  0.4999953  0.4824274    0.00000       Uiso       1.00
        O5          O  0.6295580  0.4999953  0.4321493    0.00000       Uiso       1.00
        B3          B  0.6110386  0.4999953  0.3814089    0.00000       Uiso       1.00
        O6          O  0.5578689  0.4999953  0.3601664    0.00000       Uiso       1.00
        H1          H  0.6136185  0.4999953  0.5759343    0.00000       Uiso       1.00
        H2          H  0.4542842  0.4999953  0.5759462    0.00000       Uiso       1.00
        H3          H  0.3899857  0.4999953  0.5116161    0.00000       Uiso       1.00
        H4          H  0.4017603  0.4999953  0.3640671    0.00000       Uiso       1.00
        H5          H  0.4713419  0.4999953  0.3640619    0.00000       Uiso       1.00
        H6          H  0.6187698  0.4999953  0.5115981    0.00000       Uiso       1.00
       C19          C  0.8534570  0.4999953  0.1313915    0.00000       Uiso       1.00
       C20          C  0.8057794  0.4999953  0.1313885    0.00000       Uiso       1.00
       C21          C  0.7628611  0.4999953  0.0867865    0.00000       Uiso       1.00
       C22          C  0.7666998  0.4999953  0.0442474    0.00000       Uiso       1.00
       C23          C  0.8124408  0.4999953  0.0442478    0.00000       Uiso       1.00
       C24          C  0.8553806  0.4999953  0.0867918    0.00000       Uiso       1.00
        O7          O  0.8079231  0.4999953  0.9996636    0.00000       Uiso       1.00
        B4          B  0.7554546  0.4999953  0.9700232    0.00000       Uiso       1.00
        O8          O  0.7302358  0.4999953  0.9996652    0.00000       Uiso       1.00
       C25          C  0.8973005  0.4999953  0.1752177    0.00000       Uiso       1.00
       C26          C  0.8937019  0.4999953  0.2193103    0.00000       Uiso       1.00
       C27          C  0.9454042  0.4999953  0.1768127    0.00000       Uiso       1.00
       C28          C  0.9879085  0.4999953  0.2197555    0.00000       Uiso       1.00
       C29          C  0.9843762  0.4999953  0.2620210    0.00000       Uiso       1.00
       C30          C  0.9383926  0.4999953  0.2623733    0.00000       Uiso       1.00
        O9          O  0.0294653  0.4999953  0.2991522    0.00000       Uiso       1.00
        B5          B  0.0633761  0.4999953  0.2782388    0.00000       Uiso       1.00
       O10          O  0.0355499  0.4999953  0.2274427    0.00000       Uiso       1.00
       C31          C  0.8022153  0.4999953  0.1752103    0.00000       Uiso       1.00
       C32          C  0.8463431  0.4999953  0.2193063    0.00000       Uiso       1.00
       C33          C  0.8412313  0.4999953  0.2623650    0.00000       Uiso       1.00
       C34          C  0.7949205  0.4999953  0.2620045    0.00000       Uiso       1.00
       C35          C  0.7525375  0.4999953  0.2197366    0.00000       Uiso       1.00
       C36          C  0.7555738  0.4999953  0.1767976    0.00000       Uiso       1.00
       O11          O  0.7119578  0.4999953  0.2274186    0.00000       Uiso       1.00
        B6          B  0.7308226  0.4999953  0.2782142    0.00000       Uiso       1.00
       O12          O  0.7839586  0.4999953  0.2991317    0.00000       Uiso       1.00
        H7          H  0.7278194  0.4999953  0.0832706    0.00000       Uiso       1.00
        H8          H  0.8871934  0.4999953  0.0832818    0.00000       Uiso       1.00
        H9          H  0.9515758  0.4999953  0.1476465    0.00000       Uiso       1.00
       H10          H  0.9395728  0.4999953  0.2950715    0.00000       Uiso       1.00
       H11          H  0.8701060  0.4999953  0.2950654    0.00000       Uiso       1.00
       H12          H  0.7225931  0.4999953  0.1476283    0.00000       Uiso       1.00
       C37          C  0.7312542  0.4999953  0.9174055    0.00000       Uiso       1.00
       C38          C  0.7372627  0.4999953  0.8424516    0.00000       Uiso       1.00
       C39          C  0.6793594  0.4999953  0.8921487    0.00000       Uiso       1.00
       C40          C  0.7599574  0.4999953  0.8922006    0.00000       Uiso       1.00
       C41          C  0.6561086  0.4999953  0.8421779    0.00000       Uiso       1.00
       H13          H  0.7589400  0.4999953  0.8250069    0.00000       Uiso       1.00
       H14          H  0.6582767  0.4999953  0.9101912    0.00000       Uiso       1.00
       H15          H  0.7976567  0.4999953  0.9098209    0.00000       Uiso       1.00
       C42          C  0.6102050  0.4999953  0.7417874    0.00000       Uiso       1.00
       C43          C  0.6041951  0.4999953  0.8167403    0.00000       Uiso       1.00
       C44          C  0.6620995  0.4999953  0.7670428    0.00000       Uiso       1.00
       C45          C  0.5815011  0.4999953  0.7669912    0.00000       Uiso       1.00
       C46          C  0.6853495  0.4999953  0.8170133    0.00000       Uiso       1.00
       H16          H  0.5825120  0.4999953  0.8341777    0.00000       Uiso       1.00
       H17          H  0.6831772  0.4999953  0.7489938    0.00000       Uiso       1.00
       H18          H  0.5437993  0.4999953  0.7493626    0.00000       Uiso       1.00
        C1          C  0.7004890  0.4999953  0.3047488    0.00000       Uiso       1.00
        C2          C  0.6194206  0.4999953  0.3052908    0.00000       Uiso       1.00
        C3          C  0.7224396  0.4999953  0.3546490    0.00000       Uiso       1.00
        C4          C  0.6484314  0.4999953  0.2803613    0.00000       Uiso       1.00
        C5          C  0.6937897  0.4999953  0.3793252    0.00000       Uiso       1.00
        N1          N  0.7707318  0.4999953  0.3841128    0.00000       Uiso       1.00
        S1          S  0.7828305  0.4999953  0.4417075    0.00000       Uiso       1.00
        N2          N  0.7218507  0.4999953  0.4262178    0.00000       Uiso       1.00
       H19          H  0.5818231  0.4999953  0.2865470    0.00000       Uiso       1.00
       H21          H  0.6311409  0.4999953  0.2441760    0.00000       Uiso       1.00
       C56          C  0.6417933  0.4999953  0.3552964    0.00000       Uiso       1.00
       C61          C  0.1181021  0.4999953  0.3047679    0.00000       Uiso       1.00
        C1          C  0.2232627  0.4999953  0.3553384    0.00000       Uiso       1.00
        C2          C  0.1477074  0.4999953  0.2803403    0.00000       Uiso       1.00
        C3          C  0.1933759  0.4999953  0.3793698    0.00000       Uiso       1.00
        C4          C  0.1996294  0.4999953  0.3053387    0.00000       Uiso       1.00
        C5          C  0.1420409  0.4999953  0.3546851    0.00000       Uiso       1.00
        N1          N  0.2084194  0.4999953  0.4262619    0.00000       Uiso       1.00
        S1          S  0.1616728  0.4999953  0.4417431    0.00000       Uiso       1.00
        N2          N  0.1208311  0.4999953  0.3841463    0.00000       Uiso       1.00
       H28          H  0.1317769  0.4999953  0.2441462    0.00000       Uiso       1.00
       H30          H  0.2200347  0.4999953  0.2866429    0.00000       Uiso       1.00
