data_crystal

_cell_length_a    18.48610
_cell_length_b    18.48610
_cell_length_c    6.80000
_cell_angle_alpha 90.00000
_cell_angle_beta  90.00000
_cell_angle_gamma 120.00000

_space_group_name_Hall 'P 1'
_space_group_name_H-M_alt  'P 1'

loop_
_symmetry_equiv_pos_as_xyz
'x,y,z' 

loop_
_atom_site_label
_atom_site_type_symbol
_atom_site_fract_x
_atom_site_fract_y
_atom_site_fract_z
C          C       0.42096   0.70094   0.27137 
C          C       0.38128   0.61408   0.23805 
C          C       0.28638   0.69580   0.24443 
C          C       0.37446   0.74324   0.27400 
C          C       0.29428   0.56844   0.20781 
C          C       0.24602   0.60849   0.21194 
C          C       0.50576   0.73582   0.29752 
C          C       0.26273   0.48442   0.17866 
C          C       0.23284   0.72765   0.24332 
N          N       0.56676   0.81281   0.34936 
N          N       0.24866   0.80610   0.28003 
N          N       0.18466   0.42439   0.13093 
C          C       0.68587   0.78922   0.31330 
C          C       0.77290   0.82569   0.30455 
C          C       0.22965   0.92034   0.32020 
C          C       0.17942   0.95718   0.31788 
C          C       0.07274   0.29186   0.06649 
C          C       0.03566   0.20488   0.07390 
C          C       0.20467   0.30399   0.16895 
C          C       0.16619   0.21722   0.18311 
C          C       0.10850   0.78717   0.23042 
C          C       0.05901   0.82500   0.22496 
C          C       0.70045   0.92182   0.41730 
C          C       0.78724   0.95680   0.41433 
H          H       0.65042   0.72726   0.27859 
H          H       0.79682   0.78914   0.25964 
H          H       0.29148   0.95685   0.35573 
H          H       0.03723   0.31733   0.02309 
H          H       0.26693   0.33849   0.20173 
H          H       0.20212   0.19312   0.23103 
H          H       0.08081   0.72486   0.19875 
H          H       0.67622   0.95849   0.46015 
H          H       0.20661   0.01887   0.35528 
H          H       0.97502   0.17072   0.02930 
H          H       0.99753   0.78928   0.18655 
H          H       0.82211   0.01706   0.46119 
C          C       0.04489   0.95043   0.25600 
C          C       0.03932   0.07891   0.18652 
C          C       0.91273   0.95140   0.30568 
C          C       0.19483   0.83499   0.27572 
C          C       0.15693   0.34216   0.12063 
C          C       0.64875   0.83827   0.36020 
C          C       0.09356   0.91095   0.26688 
C          C       0.07996   0.16552   0.14331 
C          C       0.82578   0.91146   0.34608 
C          C       0.08128   0.03299   0.18405 
C          C       0.95492   0.03560   0.24426 
C          C       0.96030   0.91077   0.31640 
H          H       0.93327   0.85167   0.37203 
H          H       0.14011   0.06043   0.12714 
H          H       0.92295   0.06687   0.24123 
H          H       0.31257   0.47742   0.17866 
H          H       0.50829   0.68435   0.29752 
H          H       0.42203   0.59311   0.23805 
H          H       0.40008   0.80338   0.27400 
H          H       0.18162   0.58242   0.21194 
H          H       0.16740   0.67684   0.24332 
C          C       0.42096   0.70094   0.77137 
C          C       0.38128   0.61408   0.73805 
C          C       0.28638   0.69580   0.74443 
C          C       0.37446   0.74324   0.77400 
C          C       0.29428   0.56844   0.70782 
C          C       0.24602   0.60849   0.71195 
C          C       0.50576   0.73582   0.79752 
C          C       0.26273   0.48442   0.67866 
C          C       0.23284   0.72765   0.74331 
N          N       0.56676   0.81281   0.84936 
N          N       0.24866   0.80610   0.78003 
N          N       0.18466   0.42439   0.63092 
C          C       0.68587   0.78922   0.81330 
C          C       0.77290   0.82569   0.80454 
C          C       0.22965   0.92034   0.82020 
C          C       0.17942   0.95718   0.81788 
C          C       0.07274   0.29186   0.56649 
C          C       0.03566   0.20488   0.57390 
C          C       0.20467   0.30399   0.66895 
C          C       0.16619   0.21722   0.68311 
C          C       0.10850   0.78717   0.73042 
C          C       0.05901   0.82500   0.72496 
C          C       0.70045   0.92182   0.91729 
C          C       0.78724   0.95680   0.91433 
H          H       0.65042   0.72726   0.77860 
H          H       0.79682   0.78914   0.75963 
H          H       0.29148   0.95685   0.85573 
H          H       0.03723   0.31733   0.52309 
H          H       0.26693   0.33849   0.70173 
H          H       0.20212   0.19312   0.73103 
H          H       0.08081   0.72486   0.69875 
H          H       0.67622   0.95849   0.96015 
H          H       0.20661   0.01887   0.85528 
H          H       0.97502   0.17072   0.52929 
H          H       0.99753   0.78928   0.68655 
H          H       0.82211   0.01706   0.96119 
C          C       0.04489   0.95043   0.75601 
C          C       0.03932   0.07891   0.68652 
C          C       0.91273   0.95140   0.80568 
C          C       0.19483   0.83499   0.77572 
C          C       0.15693   0.34216   0.62063 
C          C       0.64875   0.83827   0.86020 
C          C       0.09356   0.91095   0.76688 
C          C       0.07996   0.16552   0.64331 
C          C       0.82578   0.91146   0.84608 
C          C       0.08128   0.03299   0.68405 
C          C       0.95492   0.03560   0.74426 
C          C       0.96030   0.91077   0.81640 
H          H       0.93327   0.85167   0.87203 
H          H       0.14011   0.06043   0.62714 
H          H       0.92295   0.06687   0.74123 
H          H       0.31257   0.47742   0.67866 
H          H       0.50829   0.68435   0.79752 
H          H       0.42203   0.59311   0.73805 
H          H       0.40008   0.80338   0.77400 
H          H       0.18162   0.58242   0.71195 
H          H       0.16740   0.67684   0.74331 
