data_crystal
 
_cell_length_a    30.17770
_cell_length_b    30.20430
_cell_length_c    7.46800
_cell_angle_alpha 107.59800
_cell_angle_beta  80.67330
_cell_angle_gamma 120.07530
 
_symmetry_space_group_name_Hall 'P 1'
_symmetry_space_group_name_H-M  'P 1'
 
loop_
_symmetry_equiv_pos_as_xyz
 'x,y,z' 
 
loop_
_atom_site_label
_atom_site_type_symbol
_atom_site_fract_x
_atom_site_fract_y
_atom_site_fract_z
_atom_site_charge
C          C       0.04671   0.99999   0.00849   0.0000000000
C          C       0.00047   0.04633  -0.01247   0.0000000000
C          C       0.95223   0.95385   0.01057   0.0000000000
C          C       0.95289   0.00030  -0.00202   0.0000000000
C          C       0.99915   0.95379   0.01674   0.0000000000
C          C       0.04736   0.04616  -0.00760   0.0000000000
C          C       0.09356   0.99967   0.01332   0.0000000000
C          C       0.00115   0.09275  -0.02551   0.0000000000
C          C       0.90465   0.90747   0.01708   0.0000000000
C          C       0.90598   0.00071  -0.00426   0.0000000000
C          C       0.99852   0.90730   0.02871   0.0000000000
C          C       0.09488   0.09251  -0.01551   0.0000000000
C          C       0.04531   0.90752   0.04149   0.0000000000
C          C       0.09561   0.13880  -0.03201   0.0000000000
C          C       0.85830   0.95462   0.00630   0.0000000000
C          C       0.95429   0.09396  -0.01878   0.0000000000
C          C       0.90403   0.86086   0.02858   0.0000000000
C          C       0.14111   0.04559  -0.00026   0.0000000000
C          C       0.09298   0.95341   0.02939   0.0000000000
C          C       0.04862   0.13829  -0.04300   0.0000000000
C          C       0.85762   0.90748   0.01119   0.0000000000
C          C       0.90667   0.04733  -0.01621   0.0000000000
C          C       0.95096   0.86015   0.02547   0.0000000000
C          C       0.14176   0.09277  -0.00431   0.0000000000
C          C       0.04222   0.86073   0.06202   0.0000000000
C          C       0.14386   0.18491  -0.03010   0.0000000000
C          C       0.81263   0.95788   0.01463   0.0000000000
C          C       0.95704   0.14294  -0.00924   0.0000000000
C          C       0.85590   0.81645   0.04622   0.0000000000
C          C       0.18680   0.04217  -0.01327   0.0000000000
C          C       0.18799   0.99774   0.00272   0.0000000000
C          C       0.00246   0.18771  -0.03808   0.0000000000
C          C       0.80903   0.81374   0.02811   0.0000000000
C          C       0.81166   0.00200  -0.00610   0.0000000000
C          C       0.99694   0.81182   0.03610   0.0000000000
C          C       0.19047   0.18745  -0.00890   0.0000000000
C          C       0.14072   0.95440   0.02646   0.0000000000
C          C       0.04693   0.18235  -0.06710   0.0000000000
C          C       0.81124   0.85940   0.00725   0.0000000000
C          C       0.85913   0.04522  -0.02868   0.0000000000
C          C       0.95226   0.81300   0.01332   0.0000000000
C          C       0.18808   0.14121   0.00652   0.0000000000
H          H       0.14663   0.21873  -0.04243   0.0000000000
H          H       0.77821   0.92802   0.03928   0.0000000000
H          H       0.07348   0.86102   0.09658   0.0000000000
H          H       0.85366   0.78469   0.07604   0.0000000000
H          H       0.22102   0.07200  -0.04005   0.0000000000
H          H       0.92528   0.14729   0.02349   0.0000000000
H          H       0.22185   0.14463   0.03140   0.0000000000
H          H       0.85774   0.07526  -0.05792   0.0000000000
H          H       0.91995   0.77755  -0.01716   0.0000000000
H          H       0.77721   0.85592  -0.01417   0.0000000000
H          H       0.14264   0.92305   0.04031   0.0000000000
H          H       0.07872   0.21221  -0.10716   0.0000000000
C          C       0.00353   0.23580  -0.03439   0.0000000000
C          C       0.76169   0.76704   0.03026   0.0000000000
C          C       0.23491   0.99685  -0.00558   0.0000000000
C          C       0.99642   0.76380   0.02915   0.0000000000
C          C       0.23793   0.23457  -0.00238   0.0000000000
C          C       0.76491   0.00280  -0.00412   0.0000000000
C          C       0.00567   0.33304  -0.02123   0.0000000000
C          C       0.66641   0.67277   0.03415   0.0000000000
C          C       0.32942   0.99512  -0.01912   0.0000000000
C          C       0.99492   0.66638   0.00764   0.0000000000
C          C       0.33354   0.32931   0.00780   0.0000000000
C          C       0.67083   0.00467  -0.00017   0.0000000000
C          C       0.04843   0.33344   0.03261   0.0000000000
C          C       0.67157   0.72292   0.13124   0.0000000000
C          C       0.28627   0.95098  -0.11650   0.0000000000
C          C       0.95228   0.67377   0.07709   0.0000000000
C          C       0.32847   0.27972  -0.09702   0.0000000000
C          C       0.71393   0.04925   0.09581   0.0000000000
C          C       0.04721   0.28590   0.02821   0.0000000000
C          C       0.71837   0.76933   0.12943   0.0000000000
C          C       0.23977   0.95176  -0.11051   0.0000000000
C          C       0.95314   0.72161   0.08919   0.0000000000
C          C       0.28149   0.23307  -0.10233   0.0000000000
C          C       0.76022   0.04842   0.09439   0.0000000000
C          C       0.75605   0.71640  -0.06828   0.0000000000
C          C       0.27868   0.04127   0.09057   0.0000000000
C          C       0.96083   0.23625  -0.08910   0.0000000000
C          C       0.24348   0.28461   0.10433   0.0000000000
C          C       0.72118   0.95796  -0.09903   0.0000000000
C          C       0.03888   0.75533  -0.04288   0.0000000000
C          C       0.70924   0.66998  -0.06602   0.0000000000
C          C       0.32516   0.04050   0.08394   0.0000000000
C          C       0.96164   0.28378  -0.08163   0.0000000000
C          C       0.29049   0.33131   0.10894   0.0000000000
C          C       0.67492   0.95882  -0.09729   0.0000000000
C          C       0.03843   0.70783  -0.05205   0.0000000000
H          H       0.92836   0.20171  -0.13781   0.0000000000
H          H       0.78597   0.71282  -0.14482   0.0000000000
H          H       0.27708   0.07471   0.16846   0.0000000000
H          H       0.07072   0.78344  -0.09341   0.0000000000
H          H       0.21335   0.28749   0.18168   0.0000000000
H          H       0.72263   0.92411  -0.17219   0.0000000000
H          H       0.93012   0.28195  -0.12373   0.0000000000
H          H       0.70677   0.63433  -0.13884   0.0000000000
H          H       0.35558   0.07325   0.15595   0.0000000000
H          H       0.06980   0.70357  -0.10509   0.0000000000
H          H       0.29298   0.36657   0.18730   0.0000000000
H          H       0.64448   0.92577  -0.16806   0.0000000000
H          H       0.64103   0.72575   0.20494   0.0000000000
H          H       0.28875   0.91794  -0.19343   0.0000000000
H          H       0.08064   0.36876   0.07759   0.0000000000
H          H       0.35920   0.27750  -0.17146   0.0000000000
H          H       0.71157   0.08266   0.16839   0.0000000000
H          H       0.92040   0.64424   0.12141   0.0000000000
H          H       0.72049   0.80488   0.20304   0.0000000000
H          H       0.20958   0.91914  -0.18548   0.0000000000
H          H       0.07879   0.28875   0.07486   0.0000000000
H          H       0.27937   0.19796  -0.18190   0.0000000000
H          H       0.79039   0.08141   0.16811   0.0000000000
H          H       0.92149   0.72515   0.14460   0.0000000000
C          C       0.54168   0.98796  -0.04221   0.0000000000
C          C       0.01279   0.55057  -0.02978   0.0000000000
C          C       0.44878   0.46197   0.05506   0.0000000000
C          C       0.45895   0.01189   0.01656   0.0000000000
C          C       0.98793   0.44581  -0.02900   0.0000000000
C          C       0.55168   0.54019   0.00026   0.0000000000
C          C       0.54816   0.03804   0.06710   0.0000000000
C          C       0.96147   0.51183  -0.01033   0.0000000000
C          C       0.48439   0.44729  -0.05567   0.0000000000
C          C       0.45250   0.96185  -0.09314   0.0000000000
C          C       0.03928   0.48459  -0.04744   0.0000000000
C          C       0.51613   0.55488   0.11142   0.0000000000
C          C       0.50754   0.04983   0.09594   0.0000000000
C          C       0.94920   0.46028  -0.01078   0.0000000000
C          C       0.53495   0.48568  -0.08246   0.0000000000
C          C       0.49312   0.95006  -0.12197   0.0000000000
C          C       0.05152   0.53606  -0.04822   0.0000000000
C          C       0.46556   0.51648   0.13832   0.0000000000
H          H       0.58267   0.06643   0.12748   0.0000000000
H          H       0.93244   0.52090   0.00389   0.0000000000
H          H       0.47366   0.40827  -0.11869   0.0000000000
H          H       0.41798   0.93348  -0.15354   0.0000000000
H          H       0.06826   0.47546  -0.06162   0.0000000000
H          H       0.52691   0.59392   0.17448   0.0000000000
H          H       0.51386   0.08651   0.17641   0.0000000000
H          H       0.91157   0.43342   0.00303   0.0000000000
H          H       0.55939   0.47331  -0.16414   0.0000000000
H          H       0.48682   0.91339  -0.20247   0.0000000000
H          H       0.08913   0.56287  -0.06263   0.0000000000
H          H       0.44112   0.52882   0.22010   0.0000000000
N          N       0.38014   0.37180   0.00171   0.0000000000
N          N       0.62810   0.00931   0.00855   0.0000000000
N          N       0.99070   0.61933   0.00423   0.0000000000
N          N       0.61996   0.63054   0.04547   0.0000000000
N          N       0.37229   0.99052  -0.03158   0.0000000000
N          N       0.01039   0.38053  -0.01466   0.0000000000
C          C       0.39796   0.42413   0.08359   0.0000000000
C          C       0.58176   0.97523  -0.07222   0.0000000000
C          C       0.02582   0.60226  -0.03159   0.0000000000
C          C       0.60238   0.57797  -0.03006   0.0000000000
C          C       0.41880   0.02454   0.04806   0.0000000000
C          C       0.97477   0.39389  -0.03009   0.0000000000
H          H       0.37412   0.43677   0.16823   0.0000000000
H          H       0.57536   0.93907  -0.15773   0.0000000000
H          H       0.06297   0.62753  -0.05929   0.0000000000
H          H       0.62631   0.56503  -0.11219   0.0000000000
H          H       0.42526   0.06062   0.13440   0.0000000000
H          H       0.93703   0.36571  -0.04142   0.0000000000
C          C       0.04671   0.99999   0.50848   0.0000000000
C          C       0.00047   0.04633   0.48753   0.0000000000
C          C       0.95223   0.95385   0.51057   0.0000000000
C          C       0.95289   0.00030   0.49799   0.0000000000
C          C       0.99915   0.95379   0.51674   0.0000000000
C          C       0.04736   0.04616   0.49241   0.0000000000
C          C       0.09356   0.99967   0.51332   0.0000000000
C          C       0.00115   0.09275   0.47449   0.0000000000
C          C       0.90465   0.90747   0.51708   0.0000000000
C          C       0.90598   0.00071   0.49574   0.0000000000
C          C       0.99852   0.90730   0.52871   0.0000000000
C          C       0.09488   0.09251   0.48450   0.0000000000
C          C       0.04531   0.90752   0.54150   0.0000000000
C          C       0.09561   0.13880   0.46799   0.0000000000
C          C       0.85830   0.95462   0.50630   0.0000000000
C          C       0.95429   0.09396   0.48122   0.0000000000
C          C       0.90403   0.86086   0.52859   0.0000000000
C          C       0.14111   0.04559   0.49974   0.0000000000
C          C       0.09298   0.95341   0.52939   0.0000000000
C          C       0.04862   0.13829   0.45700   0.0000000000
C          C       0.85762   0.90748   0.51119   0.0000000000
C          C       0.90667   0.04733   0.48380   0.0000000000
C          C       0.95096   0.86015   0.52547   0.0000000000
C          C       0.14176   0.09277   0.49569   0.0000000000
C          C       0.04222   0.86073   0.56202   0.0000000000
C          C       0.14386   0.18491   0.46991   0.0000000000
C          C       0.81263   0.95788   0.51463   0.0000000000
C          C       0.95704   0.14294   0.49076   0.0000000000
C          C       0.85590   0.81645   0.54622   0.0000000000
C          C       0.18680   0.04217   0.48673   0.0000000000
C          C       0.18799   0.99774   0.50272   0.0000000000
C          C       0.00246   0.18771   0.46192   0.0000000000
C          C       0.80903   0.81374   0.52811   0.0000000000
C          C       0.81166   0.00200   0.49391   0.0000000000
C          C       0.99694   0.81182   0.53609   0.0000000000
C          C       0.19047   0.18745   0.49111   0.0000000000
C          C       0.14072   0.95440   0.52646   0.0000000000
C          C       0.04693   0.18235   0.43290   0.0000000000
C          C       0.81124   0.85940   0.50725   0.0000000000
C          C       0.85913   0.04522   0.47133   0.0000000000
C          C       0.95226   0.81300   0.51332   0.0000000000
C          C       0.18808   0.14121   0.50652   0.0000000000
H          H       0.14663   0.21873   0.45758   0.0000000000
H          H       0.77821   0.92802   0.53928   0.0000000000
H          H       0.07348   0.86102   0.59658   0.0000000000
H          H       0.85366   0.78469   0.57603   0.0000000000
H          H       0.22102   0.07200   0.45995   0.0000000000
H          H       0.92528   0.14729   0.52349   0.0000000000
H          H       0.22185   0.14463   0.53140   0.0000000000
H          H       0.85774   0.07526   0.44209   0.0000000000
H          H       0.91995   0.77755   0.48284   0.0000000000
H          H       0.77721   0.85592   0.48584   0.0000000000
H          H       0.14264   0.92305   0.54031   0.0000000000
H          H       0.07872   0.21221   0.39284   0.0000000000
C          C       0.00353   0.23580   0.46561   0.0000000000
C          C       0.76169   0.76704   0.53026   0.0000000000
C          C       0.23491   0.99685   0.49443   0.0000000000
C          C       0.99642   0.76380   0.52915   0.0000000000
C          C       0.23793   0.23457   0.49762   0.0000000000
C          C       0.76491   0.00280   0.49588   0.0000000000
C          C       0.00567   0.33304   0.47877   0.0000000000
C          C       0.66641   0.67277   0.53414   0.0000000000
C          C       0.32942   0.99512   0.48088   0.0000000000
C          C       0.99492   0.66638   0.50764   0.0000000000
C          C       0.33354   0.32931   0.50779   0.0000000000
C          C       0.67083   0.00467   0.49984   0.0000000000
C          C       0.04843   0.33344   0.53261   0.0000000000
C          C       0.67157   0.72292   0.63124   0.0000000000
C          C       0.28627   0.95098   0.38350   0.0000000000
C          C       0.95228   0.67377   0.57708   0.0000000000
C          C       0.32847   0.27972   0.40299   0.0000000000
C          C       0.71393   0.04925   0.59581   0.0000000000
C          C       0.04721   0.28590   0.52821   0.0000000000
C          C       0.71837   0.76933   0.62944   0.0000000000
C          C       0.23977   0.95176   0.38950   0.0000000000
C          C       0.95314   0.72161   0.58918   0.0000000000
C          C       0.28149   0.23307   0.39768   0.0000000000
C          C       0.76022   0.04842   0.59438   0.0000000000
C          C       0.75605   0.71640   0.43172   0.0000000000
C          C       0.27868   0.04127   0.59057   0.0000000000
C          C       0.96083   0.23625   0.41090   0.0000000000
C          C       0.24348   0.28461   0.60433   0.0000000000
C          C       0.72118   0.95796   0.40098   0.0000000000
C          C       0.03888   0.75533   0.45712   0.0000000000
C          C       0.70924   0.66998   0.43398   0.0000000000
C          C       0.32516   0.04050   0.58394   0.0000000000
C          C       0.96164   0.28378   0.41837   0.0000000000
C          C       0.29049   0.33131   0.60894   0.0000000000
C          C       0.67492   0.95882   0.40271   0.0000000000
C          C       0.03843   0.70783   0.44795   0.0000000000
H          H       0.92836   0.20171   0.36220   0.0000000000
H          H       0.78597   0.71282   0.35518   0.0000000000
H          H       0.27708   0.07471   0.66846   0.0000000000
H          H       0.07072   0.78344   0.40659   0.0000000000
H          H       0.21335   0.28749   0.68168   0.0000000000
H          H       0.72263   0.92411   0.32781   0.0000000000
H          H       0.93012   0.28195   0.37628   0.0000000000
H          H       0.70677   0.63433   0.36116   0.0000000000
H          H       0.35558   0.07325   0.65595   0.0000000000
H          H       0.06980   0.70357   0.39491   0.0000000000
H          H       0.29298   0.36657   0.68731   0.0000000000
H          H       0.64448   0.92577   0.33194   0.0000000000
H          H       0.64103   0.72575   0.70494   0.0000000000
H          H       0.28875   0.91794   0.30658   0.0000000000
H          H       0.08064   0.36876   0.57759   0.0000000000
H          H       0.35920   0.27750   0.32854   0.0000000000
H          H       0.71157   0.08266   0.66839   0.0000000000
H          H       0.92040   0.64424   0.62141   0.0000000000
H          H       0.72049   0.80488   0.70304   0.0000000000
H          H       0.20958   0.91914   0.31453   0.0000000000
H          H       0.07879   0.28875   0.57486   0.0000000000
H          H       0.27937   0.19796   0.31810   0.0000000000
H          H       0.79039   0.08141   0.66812   0.0000000000
H          H       0.92149   0.72515   0.64460   0.0000000000
C          C       0.54168   0.98796   0.45779   0.0000000000
C          C       0.01279   0.55057   0.47022   0.0000000000
C          C       0.44878   0.46197   0.55506   0.0000000000
C          C       0.45895   0.01189   0.51656   0.0000000000
C          C       0.98793   0.44581   0.47101   0.0000000000
C          C       0.55168   0.54019   0.50026   0.0000000000
C          C       0.54816   0.03804   0.56710   0.0000000000
C          C       0.96147   0.51183   0.48968   0.0000000000
C          C       0.48439   0.44729   0.44433   0.0000000000
C          C       0.45250   0.96185   0.40686   0.0000000000
C          C       0.03928   0.48459   0.45256   0.0000000000
C          C       0.51613   0.55488   0.61142   0.0000000000
C          C       0.50754   0.04983   0.59594   0.0000000000
C          C       0.94920   0.46028   0.48922   0.0000000000
C          C       0.53495   0.48568   0.41755   0.0000000000
C          C       0.49312   0.95006   0.37804   0.0000000000
C          C       0.05152   0.53606   0.45178   0.0000000000
C          C       0.46556   0.51648   0.63832   0.0000000000
H          H       0.58267   0.06643   0.62748   0.0000000000
H          H       0.93244   0.52090   0.50389   0.0000000000
H          H       0.47366   0.40827   0.38132   0.0000000000
H          H       0.41798   0.93348   0.34646   0.0000000000
H          H       0.06826   0.47546   0.43838   0.0000000000
H          H       0.52691   0.59392   0.67448   0.0000000000
H          H       0.51386   0.08651   0.67641   0.0000000000
H          H       0.91157   0.43342   0.50304   0.0000000000
H          H       0.55939   0.47331   0.33587   0.0000000000
H          H       0.48682   0.91339   0.29753   0.0000000000
H          H       0.08913   0.56287   0.43737   0.0000000000
H          H       0.44112   0.52882   0.72010   0.0000000000
N          N       0.38014   0.37180   0.50171   0.0000000000
N          N       0.62810   0.00931   0.50855   0.0000000000
N          N       0.99070   0.61933   0.50423   0.0000000000
N          N       0.61996   0.63054   0.54547   0.0000000000
N          N       0.37229   0.99052   0.46842   0.0000000000
N          N       0.01039   0.38053   0.48534   0.0000000000
C          C       0.39796   0.42413   0.58359   0.0000000000
C          C       0.58176   0.97523   0.42778   0.0000000000
C          C       0.02582   0.60226   0.46841   0.0000000000
C          C       0.60238   0.57797   0.46995   0.0000000000
C          C       0.41880   0.02454   0.54806   0.0000000000
C          C       0.97477   0.39389   0.46992   0.0000000000
H          H       0.37412   0.43677   0.66822   0.0000000000
H          H       0.57536   0.93907   0.34227   0.0000000000
H          H       0.06297   0.62753   0.44071   0.0000000000
H          H       0.62631   0.56503   0.38781   0.0000000000
H          H       0.42526   0.06062   0.63441   0.0000000000
H          H       0.93703   0.36571   0.45858   0.0000000000
