data_crystal

_cell_length_a    29.72780
_cell_length_b    29.72780
_cell_length_c    7.10320
_cell_angle_alpha 90.00000
_cell_angle_beta  90.00000
_cell_angle_gamma 120.00000

_space_group_name_Hall 'P 1'
_space_group_name_H-M_alt  'P 1'

loop_
_symmetry_equiv_pos_as_xyz
'x,y,z' 

loop_
_atom_site_label
_atom_site_type_symbol
_atom_site_fract_x
_atom_site_fract_y
_atom_site_fract_z
C          C       0.61280   0.31124   0.39048 
C          C       0.68876   0.30156   0.39048 
C          C       0.69844   0.38720   0.39048 
C          C       0.38720   0.68876   0.10952 
C          C       0.31124   0.69844   0.10952 
C          C       0.30156   0.61280   0.10952 
C          C       0.63439   0.27862   0.38932 
C          C       0.72138   0.35577   0.38932 
C          C       0.64423   0.36561   0.38932 
C          C       0.36561   0.72138   0.11068 
C          C       0.27862   0.64423   0.11068 
C          C       0.35577   0.63439   0.11068 
C          C       0.62057   0.39973   0.38040 
C          C       0.60027   0.22084   0.38040 
C          C       0.77916   0.37943   0.38040 
C          C       0.37943   0.60027   0.11959 
C          C       0.39973   0.77916   0.11959 
C          C       0.22084   0.62057   0.11959 
C          C       0.64751   0.45128   0.44799 
C          C       0.54872   0.19623   0.44799 
C          C       0.80377   0.35249   0.44799 
C          C       0.35249   0.54872   0.05201 
C          C       0.45128   0.80377   0.05201 
C          C       0.19623   0.64751   0.05201 
C          C       0.62618   0.48360   0.43172 
C          C       0.51640   0.14258   0.43172 
C          C       0.85742   0.37382   0.43172 
C          C       0.37382   0.51640   0.06828 
C          C       0.48360   0.85742   0.06828 
C          C       0.14258   0.62618   0.06828 
C          C       0.57682   0.46488   0.35324 
C          C       0.53512   0.11194   0.35324 
C          C       0.88806   0.42318   0.35324 
C          C       0.42318   0.53512   0.14676 
C          C       0.46488   0.88806   0.14676 
C          C       0.11194   0.57682   0.14676 
C          C       0.54910   0.41333   0.29003 
C          C       0.58667   0.13577   0.29003 
C          C       0.86423   0.45090   0.29003 
C          C       0.45090   0.58667   0.20997 
C          C       0.41333   0.86423   0.20997 
C          C       0.13577   0.54910   0.20997 
C          C       0.57094   0.38146   0.30084 
C          C       0.61854   0.18948   0.30084 
C          C       0.81052   0.42906   0.30084 
C          C       0.42906   0.61854   0.19916 
C          C       0.38146   0.81052   0.19916 
C          C       0.18948   0.57094   0.19916 
C          C       0.55528   0.49972   0.33493 
C          C       0.50028   0.05556   0.33493 
C          C       0.94444   0.44472   0.33493 
C          C       0.44472   0.50028   0.16507 
C          C       0.49972   0.94444   0.16507 
C          C       0.05556   0.55528   0.16507 
N          N       0.51012   0.48339   0.25980 
N          N       0.51661   0.02673   0.25980 
N          N       0.97327   0.48988   0.25980 
N          N       0.48988   0.51661   0.24020 
N          N       0.48339   0.97327   0.24020 
N          N       0.02673   0.51012   0.24020 
H          H       0.57123   0.29418   0.38996 
H          H       0.70582   0.27705   0.38996 
H          H       0.72295   0.42877   0.38996 
H          H       0.42877   0.70582   0.11003 
H          H       0.29418   0.72295   0.11003 
H          H       0.27705   0.57123   0.11003 
H          H       0.68466   0.46683   0.01757 
H          H       0.53317   0.21783   0.01757 
H          H       0.78217   0.31534   0.01757 
H          H       0.31534   0.53317   0.48243 
H          H       0.46683   0.78217   0.48243 
H          H       0.21783   0.68466   0.48243 
H          H       0.64796   0.52311   0.48345 
H          H       0.47689   0.12485   0.48345 
H          H       0.87515   0.35204   0.48345 
H          H       0.35204   0.47689   0.01654 
H          H       0.52311   0.87515   0.01654 
H          H       0.12485   0.64796   0.01654 
H          H       0.51108   0.39797   0.22666 
H          H       0.60203   0.11311   0.22666 
H          H       0.88689   0.48892   0.22666 
H          H       0.48892   0.60203   0.27334 
H          H       0.39797   0.88689   0.27334 
H          H       0.11311   0.51108   0.27334 
H          H       0.57766   0.53953   0.38376 
H          H       0.46047   0.03813   0.38376 
H          H       0.96187   0.42234   0.38376 
H          H       0.42234   0.46047   0.11624 
H          H       0.53953   0.96187   0.11624 
H          H       0.03813   0.57766   0.11624 
H          H       0.45077   0.65682   0.26053 
H          H       0.34318   0.79395   0.26053 
H          H       0.20605   0.54923   0.26053 
H          H       0.54923   0.34318   0.23947 
H          H       0.65682   0.20605   0.23947 
H          H       0.79395   0.45077   0.23947 
C          C       0.61280   0.31124   0.89048 
C          C       0.68876   0.30156   0.89048 
C          C       0.69844   0.38720   0.89048 
C          C       0.38720   0.68876   0.60952 
C          C       0.31124   0.69844   0.60952 
C          C       0.30156   0.61280   0.60952 
C          C       0.63439   0.27862   0.88932 
C          C       0.72138   0.35577   0.88932 
C          C       0.64423   0.36561   0.88932 
C          C       0.36561   0.72138   0.61068 
C          C       0.27862   0.64423   0.61068 
C          C       0.35577   0.63439   0.61068 
C          C       0.62057   0.39973   0.88040 
C          C       0.60027   0.22084   0.88040 
C          C       0.77916   0.37943   0.88040 
C          C       0.37943   0.60027   0.61960 
C          C       0.39973   0.77916   0.61960 
C          C       0.22084   0.62057   0.61960 
C          C       0.64751   0.45128   0.94799 
C          C       0.54872   0.19623   0.94799 
C          C       0.80377   0.35249   0.94799 
C          C       0.35249   0.54872   0.55201 
C          C       0.45128   0.80377   0.55201 
C          C       0.19623   0.64751   0.55201 
C          C       0.62618   0.48360   0.93172 
C          C       0.51640   0.14258   0.93172 
C          C       0.85742   0.37382   0.93172 
C          C       0.37382   0.51640   0.56828 
C          C       0.48360   0.85742   0.56828 
C          C       0.14258   0.62618   0.56828 
C          C       0.57682   0.46488   0.85324 
C          C       0.53512   0.11194   0.85324 
C          C       0.88806   0.42318   0.85324 
C          C       0.42318   0.53512   0.64676 
C          C       0.46488   0.88806   0.64676 
C          C       0.11194   0.57682   0.64676 
C          C       0.54910   0.41333   0.79003 
C          C       0.58667   0.13577   0.79003 
C          C       0.86423   0.45090   0.79003 
C          C       0.45090   0.58667   0.70997 
C          C       0.41333   0.86423   0.70997 
C          C       0.13577   0.54910   0.70997 
C          C       0.57094   0.38146   0.80084 
C          C       0.61854   0.18948   0.80084 
C          C       0.81052   0.42906   0.80084 
C          C       0.42906   0.61854   0.69916 
C          C       0.38146   0.81052   0.69916 
C          C       0.18948   0.57094   0.69916 
C          C       0.55528   0.49972   0.83493 
C          C       0.50028   0.05556   0.83493 
C          C       0.94444   0.44472   0.83493 
C          C       0.44472   0.50028   0.66507 
C          C       0.49972   0.94444   0.66507 
C          C       0.05556   0.55528   0.66507 
N          N       0.51012   0.48339   0.75980 
N          N       0.51661   0.02673   0.75980 
N          N       0.97327   0.48988   0.75980 
N          N       0.48988   0.51661   0.74020 
N          N       0.48339   0.97327   0.74020 
N          N       0.02673   0.51012   0.74020 
H          H       0.57123   0.29418   0.88996 
H          H       0.70582   0.27705   0.88996 
H          H       0.72295   0.42877   0.88996 
H          H       0.42877   0.70582   0.61003 
H          H       0.29418   0.72295   0.61003 
H          H       0.27705   0.57123   0.61003 
H          H       0.68466   0.46683   0.51757 
H          H       0.53317   0.21783   0.51757 
H          H       0.78217   0.31534   0.51757 
H          H       0.31534   0.53317   0.98243 
H          H       0.46683   0.78217   0.98243 
H          H       0.21783   0.68466   0.98243 
H          H       0.64796   0.52311   0.98345 
H          H       0.47689   0.12485   0.98345 
H          H       0.87515   0.35204   0.98345 
H          H       0.35204   0.47689   0.51654 
H          H       0.52311   0.87515   0.51654 
H          H       0.12485   0.64796   0.51654 
H          H       0.51108   0.39797   0.72666 
H          H       0.60203   0.11311   0.72666 
H          H       0.88689   0.48892   0.72666 
H          H       0.48892   0.60203   0.77334 
H          H       0.39797   0.88689   0.77334 
H          H       0.11311   0.51108   0.77334 
H          H       0.57766   0.53953   0.88376 
H          H       0.46047   0.03813   0.88376 
H          H       0.96187   0.42234   0.88376 
H          H       0.42234   0.46047   0.61624 
H          H       0.53953   0.96187   0.61624 
H          H       0.03813   0.57766   0.61624 
H          H       0.45077   0.65682   0.76053 
H          H       0.34318   0.79395   0.76053 
H          H       0.20605   0.54923   0.76053 
H          H       0.54923   0.34318   0.73947 
H          H       0.65682   0.20605   0.73947 
H          H       0.79395   0.45077   0.73947 
