data_Ni-DBA-3D-COF-ctn
_audit_creation_date              0000-00-00
_audit_creation_method            'LanYouShi'
_symmetry_space_group_name_H-M    'P1'
_cell_length_a                    48.3019981
_cell_length_b                    48.3019981
_cell_length_c                    48.3019981
_cell_angle_alpha                 90.0000000
_cell_angle_beta                  90.0000000
_cell_angle_gamma                 90.0000000
loop_
_atom_site_label
_atom_site_type_symbol
_atom_site_fract_x
_atom_site_fract_y
_atom_site_fract_z
_atom_site_U_iso_or_equiv
_atom_site_adp_type
_atom_site_occupancy
        C1          C  0.3750000  0.0000000  0.2500000    0.00000       Uiso       1.00
        C2          C  0.1250000  0.0000000  0.7500001    0.00000       Uiso       1.00
        C3          C  0.6250000  0.5000000  0.2500000    0.00000       Uiso       1.00
        C4          C  0.8750001  0.5000000  0.7500001    0.00000       Uiso       1.00
        C5          C  0.2500000  0.3750000  0.0000000    0.00000       Uiso       1.00
        C6          C  0.7500001  0.1250000  0.0000000    0.00000       Uiso       1.00
        C7          C  0.2500000  0.6250000  0.5000000    0.00000       Uiso       1.00
        C8          C  0.7500001  0.8750001  0.5000000    0.00000       Uiso       1.00
        C9          C  0.0000000  0.2500000  0.3750000    0.00000       Uiso       1.00
       C10          C  0.0000000  0.7500001  0.1250000    0.00000       Uiso       1.00
       C11          C  0.5000000  0.2500000  0.6250000    0.00000       Uiso       1.00
       C12          C  0.5000000  0.7500001  0.8750001    0.00000       Uiso       1.00
       C13          C  0.3532969  0.0381221  0.2181807    0.00000       Uiso       1.00
       C14          C  0.8532969  0.5381222  0.7181807    0.00000       Uiso       1.00
       C15          C  0.1467031  0.9618779  0.7181807    0.00000       Uiso       1.00
       C16          C  0.6467031  0.4618779  0.2181807    0.00000       Uiso       1.00
       C17          C  0.6467031  0.5381222  0.2818194    0.00000       Uiso       1.00
       C18          C  0.1467031  0.0381221  0.7818194    0.00000       Uiso       1.00
       C19          C  0.8532969  0.4618779  0.7818194    0.00000       Uiso       1.00
       C20          C  0.3532969  0.9618779  0.2818194    0.00000       Uiso       1.00
       C21          C  0.2181807  0.3532969  0.0381221    0.00000       Uiso       1.00
       C22          C  0.7181807  0.8532969  0.5381222    0.00000       Uiso       1.00
       C23          C  0.7181807  0.1467031  0.9618779    0.00000       Uiso       1.00
       C24          C  0.2181807  0.6467031  0.4618779    0.00000       Uiso       1.00
       C25          C  0.2818194  0.6467031  0.5381222    0.00000       Uiso       1.00
       C26          C  0.7818194  0.1467031  0.0381221    0.00000       Uiso       1.00
       C27          C  0.7818194  0.8532969  0.4618779    0.00000       Uiso       1.00
       C28          C  0.2818194  0.3532969  0.9618779    0.00000       Uiso       1.00
       C29          C  0.0381221  0.2181807  0.3532969    0.00000       Uiso       1.00
       C30          C  0.5381222  0.7181807  0.8532969    0.00000       Uiso       1.00
       C31          C  0.9618779  0.7181807  0.1467031    0.00000       Uiso       1.00
       C32          C  0.4618779  0.2181807  0.6467031    0.00000       Uiso       1.00
       C33          C  0.5381222  0.2818194  0.6467031    0.00000       Uiso       1.00
       C34          C  0.0381221  0.7818194  0.1467031    0.00000       Uiso       1.00
       C35          C  0.4618779  0.7818194  0.8532969    0.00000       Uiso       1.00
       C36          C  0.9618779  0.2818194  0.3532969    0.00000       Uiso       1.00
       C37          C  0.2881221  0.6032969  0.4681807    0.00000       Uiso       1.00
       C38          C  0.7881222  0.1032969  0.9681807    0.00000       Uiso       1.00
       C39          C  0.2118779  0.3967032  0.9681807    0.00000       Uiso       1.00
       C40          C  0.7118779  0.8967031  0.4681807    0.00000       Uiso       1.00
       C41          C  0.7881222  0.8967031  0.5318194    0.00000       Uiso       1.00
       C42          C  0.2881221  0.3967032  0.0318193    0.00000       Uiso       1.00
       C43          C  0.7118779  0.1032969  0.0318193    0.00000       Uiso       1.00
       C44          C  0.2118779  0.6032969  0.5318194    0.00000       Uiso       1.00
       C45          C  0.6032969  0.4681807  0.2881221    0.00000       Uiso       1.00
       C46          C  0.1032969  0.9681807  0.7881222    0.00000       Uiso       1.00
       C47          C  0.3967032  0.9681807  0.2118779    0.00000       Uiso       1.00
       C48          C  0.8967031  0.4681807  0.7118779    0.00000       Uiso       1.00
       C49          C  0.8967031  0.5318194  0.7881222    0.00000       Uiso       1.00
       C50          C  0.3967032  0.0318193  0.2881221    0.00000       Uiso       1.00
       C51          C  0.1032969  0.0318193  0.7118779    0.00000       Uiso       1.00
       C52          C  0.6032969  0.5318194  0.2118779    0.00000       Uiso       1.00
       C53          C  0.4681807  0.2881221  0.6032969    0.00000       Uiso       1.00
       C54          C  0.9681807  0.7881222  0.1032969    0.00000       Uiso       1.00
       C55          C  0.9681807  0.2118779  0.3967032    0.00000       Uiso       1.00
       C56          C  0.4681807  0.7118779  0.8967031    0.00000       Uiso       1.00
       C57          C  0.5318194  0.7881222  0.8967031    0.00000       Uiso       1.00
       C58          C  0.0318193  0.2881221  0.3967032    0.00000       Uiso       1.00
       C59          C  0.0318193  0.7118779  0.1032969    0.00000       Uiso       1.00
       C60          C  0.5318194  0.2118779  0.6032969    0.00000       Uiso       1.00
       C61          C  0.3550031  0.0240521  0.2440064    0.00000       Uiso       1.00
       C62          C  0.8550031  0.5240521  0.7440064    0.00000       Uiso       1.00
       C63          C  0.1449970  0.9759480  0.7440064    0.00000       Uiso       1.00
       C64          C  0.6449969  0.4759479  0.2440064    0.00000       Uiso       1.00
       C65          C  0.6449969  0.5240521  0.2559936    0.00000       Uiso       1.00
       C66          C  0.1449970  0.0240521  0.7559936    0.00000       Uiso       1.00
       C67          C  0.8550031  0.4759479  0.7559936    0.00000       Uiso       1.00
       C68          C  0.3550031  0.9759480  0.2559936    0.00000       Uiso       1.00
       C69          C  0.2440064  0.3550031  0.0240521    0.00000       Uiso       1.00
       C70          C  0.7440064  0.8550031  0.5240521    0.00000       Uiso       1.00
       C71          C  0.7440064  0.1449970  0.9759480    0.00000       Uiso       1.00
       C72          C  0.2440064  0.6449969  0.4759479    0.00000       Uiso       1.00
       C73          C  0.2559936  0.6449969  0.5240521    0.00000       Uiso       1.00
       C74          C  0.7559936  0.1449970  0.0240521    0.00000       Uiso       1.00
       C75          C  0.7559936  0.8550031  0.4759479    0.00000       Uiso       1.00
       C76          C  0.2559936  0.3550031  0.9759480    0.00000       Uiso       1.00
       C77          C  0.0240521  0.2440064  0.3550031    0.00000       Uiso       1.00
       C78          C  0.5240521  0.7440064  0.8550031    0.00000       Uiso       1.00
       C79          C  0.9759480  0.7440064  0.1449970    0.00000       Uiso       1.00
       C80          C  0.4759479  0.2440064  0.6449969    0.00000       Uiso       1.00
       C81          C  0.5240521  0.2559936  0.6449969    0.00000       Uiso       1.00
       C82          C  0.0240521  0.7559936  0.1449970    0.00000       Uiso       1.00
       C83          C  0.4759479  0.7559936  0.8550031    0.00000       Uiso       1.00
       C84          C  0.9759480  0.2559936  0.3550031    0.00000       Uiso       1.00
       C85          C  0.2740521  0.6050031  0.4940064    0.00000       Uiso       1.00
       C86          C  0.7740521  0.1050031  0.9940065    0.00000       Uiso       1.00
       C87          C  0.2259479  0.3949969  0.9940065    0.00000       Uiso       1.00
       C88          C  0.7259479  0.8949969  0.4940064    0.00000       Uiso       1.00
       C89          C  0.7740521  0.8949969  0.5059936    0.00000       Uiso       1.00
       C90          C  0.2740521  0.3949969  0.0059936    0.00000       Uiso       1.00
       C91          C  0.7259479  0.1050031  0.0059936    0.00000       Uiso       1.00
       C92          C  0.2259479  0.6050031  0.5059936    0.00000       Uiso       1.00
       C93          C  0.6050031  0.4940064  0.2740521    0.00000       Uiso       1.00
       C94          C  0.1050031  0.9940065  0.7740521    0.00000       Uiso       1.00
       C95          C  0.3949969  0.9940065  0.2259479    0.00000       Uiso       1.00
       C96          C  0.8949969  0.4940064  0.7259479    0.00000       Uiso       1.00
       C97          C  0.8949969  0.5059936  0.7740521    0.00000       Uiso       1.00
       C98          C  0.3949969  0.0059936  0.2740521    0.00000       Uiso       1.00
       C99          C  0.1050031  0.0059936  0.7259479    0.00000       Uiso       1.00
      C100          C  0.6050031  0.5059936  0.2259479    0.00000       Uiso       1.00
      C101          C  0.4940064  0.2740521  0.6050031    0.00000       Uiso       1.00
      C102          C  0.9940065  0.7740521  0.1050031    0.00000       Uiso       1.00
      C103          C  0.9940065  0.2259479  0.3949969    0.00000       Uiso       1.00
      C104          C  0.4940064  0.7259479  0.8949969    0.00000       Uiso       1.00
      C105          C  0.5059936  0.7740521  0.8949969    0.00000       Uiso       1.00
      C106          C  0.0059936  0.2740521  0.3949969    0.00000       Uiso       1.00
      C107          C  0.0059936  0.7259479  0.1050031    0.00000       Uiso       1.00
      C108          C  0.5059936  0.2259479  0.6050031    0.00000       Uiso       1.00
      C109          C  0.3357204  0.0326964  0.2646002    0.00000       Uiso       1.00
      C110          C  0.8357205  0.5326964  0.7646002    0.00000       Uiso       1.00
      C111          C  0.1642796  0.9673036  0.7646002    0.00000       Uiso       1.00
      C112          C  0.6642795  0.4673036  0.2646002    0.00000       Uiso       1.00
      C113          C  0.6642795  0.5326964  0.2353999    0.00000       Uiso       1.00
      C114          C  0.1642796  0.0326964  0.7353998    0.00000       Uiso       1.00
      C115          C  0.8357205  0.4673036  0.7353998    0.00000       Uiso       1.00
      C116          C  0.3357204  0.9673036  0.2353999    0.00000       Uiso       1.00
      C117          C  0.2646002  0.3357204  0.0326964    0.00000       Uiso       1.00
      C118          C  0.7646002  0.8357205  0.5326964    0.00000       Uiso       1.00
      C119          C  0.7646002  0.1642796  0.9673036    0.00000       Uiso       1.00
      C120          C  0.2646002  0.6642795  0.4673036    0.00000       Uiso       1.00
      C121          C  0.2353999  0.6642795  0.5326964    0.00000       Uiso       1.00
      C122          C  0.7353998  0.1642796  0.0326964    0.00000       Uiso       1.00
      C123          C  0.7353998  0.8357205  0.4673036    0.00000       Uiso       1.00
      C124          C  0.2353999  0.3357204  0.9673036    0.00000       Uiso       1.00
      C125          C  0.0326964  0.2646002  0.3357204    0.00000       Uiso       1.00
      C126          C  0.5326964  0.7646002  0.8357205    0.00000       Uiso       1.00
      C127          C  0.9673036  0.7646002  0.1642796    0.00000       Uiso       1.00
      C128          C  0.4673036  0.2646002  0.6642795    0.00000       Uiso       1.00
      C129          C  0.5326964  0.2353999  0.6642795    0.00000       Uiso       1.00
      C130          C  0.0326964  0.7353998  0.1642796    0.00000       Uiso       1.00
      C131          C  0.4673036  0.7353998  0.8357205    0.00000       Uiso       1.00
      C132          C  0.9673036  0.2353999  0.3357204    0.00000       Uiso       1.00
      C133          C  0.2826964  0.5857205  0.5146002    0.00000       Uiso       1.00
      C134          C  0.7826964  0.0857205  0.0146002    0.00000       Uiso       1.00
      C135          C  0.2173036  0.4142796  0.0146002    0.00000       Uiso       1.00
      C136          C  0.7173036  0.9142796  0.5146002    0.00000       Uiso       1.00
      C137          C  0.7826964  0.9142796  0.4853999    0.00000       Uiso       1.00
      C138          C  0.2826964  0.4142796  0.9853998    0.00000       Uiso       1.00
      C139          C  0.7173036  0.0857205  0.9853998    0.00000       Uiso       1.00
      C140          C  0.2173036  0.5857205  0.4853999    0.00000       Uiso       1.00
      C141          C  0.5857205  0.5146002  0.2826964    0.00000       Uiso       1.00
      C142          C  0.0857205  0.0146002  0.7826964    0.00000       Uiso       1.00
      C143          C  0.4142796  0.0146002  0.2173036    0.00000       Uiso       1.00
      C144          C  0.9142796  0.5146002  0.7173036    0.00000       Uiso       1.00
      C145          C  0.9142796  0.4853999  0.7826964    0.00000       Uiso       1.00
      C146          C  0.4142796  0.9853998  0.2826964    0.00000       Uiso       1.00
      C147          C  0.0857205  0.9853998  0.7173036    0.00000       Uiso       1.00
      C148          C  0.5857205  0.4853999  0.2173036    0.00000       Uiso       1.00
      C149          C  0.5146002  0.2826964  0.5857205    0.00000       Uiso       1.00
      C150          C  0.0146002  0.7826964  0.0857205    0.00000       Uiso       1.00
      C151          C  0.0146002  0.2173036  0.4142796    0.00000       Uiso       1.00
      C152          C  0.5146002  0.7173036  0.9142796    0.00000       Uiso       1.00
      C153          C  0.4853999  0.7826964  0.9142796    0.00000       Uiso       1.00
      C154          C  0.9853998  0.2826964  0.4142796    0.00000       Uiso       1.00
      C155          C  0.9853998  0.7173036  0.0857205    0.00000       Uiso       1.00
      C156          C  0.4853999  0.2173036  0.5857205    0.00000       Uiso       1.00
      C157          C  0.3168877  0.0544976  0.2602078    0.00000       Uiso       1.00
      C158          C  0.8168877  0.5544976  0.7602078    0.00000       Uiso       1.00
      C159          C  0.1831123  0.9455025  0.7602078    0.00000       Uiso       1.00
      C160          C  0.6831123  0.4455024  0.2602078    0.00000       Uiso       1.00
      C161          C  0.6831123  0.5544976  0.2397922    0.00000       Uiso       1.00
      C162          C  0.1831123  0.0544976  0.7397922    0.00000       Uiso       1.00
      C163          C  0.8168877  0.4455024  0.7397922    0.00000       Uiso       1.00
      C164          C  0.3168877  0.9455025  0.2397922    0.00000       Uiso       1.00
      C165          C  0.2602078  0.3168877  0.0544976    0.00000       Uiso       1.00
      C166          C  0.7602078  0.8168877  0.5544976    0.00000       Uiso       1.00
      C167          C  0.7602078  0.1831123  0.9455025    0.00000       Uiso       1.00
      C168          C  0.2602078  0.6831123  0.4455024    0.00000       Uiso       1.00
      C169          C  0.2397922  0.6831123  0.5544976    0.00000       Uiso       1.00
      C170          C  0.7397922  0.1831123  0.0544976    0.00000       Uiso       1.00
      C171          C  0.7397922  0.8168877  0.4455024    0.00000       Uiso       1.00
      C172          C  0.2397922  0.3168877  0.9455025    0.00000       Uiso       1.00
      C173          C  0.0544976  0.2602078  0.3168877    0.00000       Uiso       1.00
      C174          C  0.5544976  0.7602078  0.8168877    0.00000       Uiso       1.00
      C175          C  0.9455025  0.7602078  0.1831123    0.00000       Uiso       1.00
      C176          C  0.4455024  0.2602078  0.6831123    0.00000       Uiso       1.00
      C177          C  0.5544976  0.2397922  0.6831123    0.00000       Uiso       1.00
      C178          C  0.0544976  0.7397922  0.1831123    0.00000       Uiso       1.00
      C179          C  0.4455024  0.7397922  0.8168877    0.00000       Uiso       1.00
      C180          C  0.9455025  0.2397922  0.3168877    0.00000       Uiso       1.00
      C181          C  0.3044976  0.5668877  0.5102078    0.00000       Uiso       1.00
      C182          C  0.8044976  0.0668877  0.0102078    0.00000       Uiso       1.00
      C183          C  0.1955024  0.4331123  0.0102078    0.00000       Uiso       1.00
      C184          C  0.6955025  0.9331123  0.5102078    0.00000       Uiso       1.00
      C185          C  0.8044976  0.9331123  0.4897922    0.00000       Uiso       1.00
      C186          C  0.3044976  0.4331123  0.9897922    0.00000       Uiso       1.00
      C187          C  0.6955025  0.0668877  0.9897922    0.00000       Uiso       1.00
      C188          C  0.1955024  0.5668877  0.4897922    0.00000       Uiso       1.00
      C189          C  0.5668877  0.5102078  0.3044976    0.00000       Uiso       1.00
      C190          C  0.0668877  0.0102078  0.8044976    0.00000       Uiso       1.00
      C191          C  0.4331123  0.0102078  0.1955024    0.00000       Uiso       1.00
      C192          C  0.9331123  0.5102078  0.6955025    0.00000       Uiso       1.00
      C193          C  0.9331123  0.4897922  0.8044976    0.00000       Uiso       1.00
      C194          C  0.4331123  0.9897922  0.3044976    0.00000       Uiso       1.00
      C195          C  0.0668877  0.9897922  0.6955025    0.00000       Uiso       1.00
      C196          C  0.5668877  0.4897922  0.1955024    0.00000       Uiso       1.00
      C197          C  0.5102078  0.3044976  0.5668877    0.00000       Uiso       1.00
      C198          C  0.0102078  0.8044976  0.0668877    0.00000       Uiso       1.00
      C199          C  0.0102078  0.1955024  0.4331123    0.00000       Uiso       1.00
      C200          C  0.5102078  0.6955025  0.9331123    0.00000       Uiso       1.00
      C201          C  0.4897922  0.8044976  0.9331123    0.00000       Uiso       1.00
      C202          C  0.9897922  0.3044976  0.4331123    0.00000       Uiso       1.00
      C203          C  0.9897922  0.6955025  0.0668877    0.00000       Uiso       1.00
      C204          C  0.4897922  0.1955024  0.5668877    0.00000       Uiso       1.00
      C205          C  0.3166001  0.0688332  0.2347894    0.00000       Uiso       1.00
      C206          C  0.8166001  0.5688332  0.7347894    0.00000       Uiso       1.00
      C207          C  0.1833999  0.9311668  0.7347894    0.00000       Uiso       1.00
      C208          C  0.6833999  0.4311668  0.2347894    0.00000       Uiso       1.00
      C209          C  0.6833999  0.5688332  0.2652106    0.00000       Uiso       1.00
      C210          C  0.1833999  0.0688332  0.7652106    0.00000       Uiso       1.00
      C211          C  0.8166001  0.4311668  0.7652106    0.00000       Uiso       1.00
      C212          C  0.3166001  0.9311668  0.2652106    0.00000       Uiso       1.00
      C213          C  0.2347894  0.3166001  0.0688332    0.00000       Uiso       1.00
      C214          C  0.7347894  0.8166001  0.5688332    0.00000       Uiso       1.00
      C215          C  0.7347894  0.1833999  0.9311668    0.00000       Uiso       1.00
      C216          C  0.2347894  0.6833999  0.4311668    0.00000       Uiso       1.00
      C217          C  0.2652106  0.6833999  0.5688332    0.00000       Uiso       1.00
      C218          C  0.7652106  0.1833999  0.0688332    0.00000       Uiso       1.00
      C219          C  0.7652106  0.8166001  0.4311668    0.00000       Uiso       1.00
      C220          C  0.2652106  0.3166001  0.9311668    0.00000       Uiso       1.00
      C221          C  0.0688332  0.2347894  0.3166001    0.00000       Uiso       1.00
      C222          C  0.5688332  0.7347894  0.8166001    0.00000       Uiso       1.00
      C223          C  0.9311668  0.7347894  0.1833999    0.00000       Uiso       1.00
      C224          C  0.4311668  0.2347894  0.6833999    0.00000       Uiso       1.00
      C225          C  0.5688332  0.2652106  0.6833999    0.00000       Uiso       1.00
      C226          C  0.0688332  0.7652106  0.1833999    0.00000       Uiso       1.00
      C227          C  0.4311668  0.7652106  0.8166001    0.00000       Uiso       1.00
      C228          C  0.9311668  0.2652106  0.3166001    0.00000       Uiso       1.00
      C229          C  0.3188332  0.5666001  0.4847895    0.00000       Uiso       1.00
      C230          C  0.8188332  0.0666001  0.9847895    0.00000       Uiso       1.00
      C231          C  0.1811668  0.4333999  0.9847895    0.00000       Uiso       1.00
      C232          C  0.6811668  0.9334000  0.4847895    0.00000       Uiso       1.00
      C233          C  0.8188332  0.9334000  0.5152106    0.00000       Uiso       1.00
      C234          C  0.3188332  0.4333999  0.0152106    0.00000       Uiso       1.00
      C235          C  0.6811668  0.0666001  0.0152106    0.00000       Uiso       1.00
      C236          C  0.1811668  0.5666001  0.5152106    0.00000       Uiso       1.00
      C237          C  0.5666001  0.4847895  0.3188332    0.00000       Uiso       1.00
      C238          C  0.0666001  0.9847895  0.8188332    0.00000       Uiso       1.00
      C239          C  0.4333999  0.9847895  0.1811668    0.00000       Uiso       1.00
      C240          C  0.9334000  0.4847895  0.6811668    0.00000       Uiso       1.00
      C241          C  0.9334000  0.5152106  0.8188332    0.00000       Uiso       1.00
      C242          C  0.4333999  0.0152106  0.3188332    0.00000       Uiso       1.00
      C243          C  0.0666001  0.0152106  0.6811668    0.00000       Uiso       1.00
      C244          C  0.5666001  0.5152106  0.1811668    0.00000       Uiso       1.00
      C245          C  0.4847895  0.3188332  0.5666001    0.00000       Uiso       1.00
      C246          C  0.9847895  0.8188332  0.0666001    0.00000       Uiso       1.00
      C247          C  0.9847895  0.1811668  0.4333999    0.00000       Uiso       1.00
      C248          C  0.4847895  0.6811668  0.9334000    0.00000       Uiso       1.00
      C249          C  0.5152106  0.8188332  0.9334000    0.00000       Uiso       1.00
      C250          C  0.0152106  0.3188332  0.4333999    0.00000       Uiso       1.00
      C251          C  0.0152106  0.6811668  0.0666001    0.00000       Uiso       1.00
      C252          C  0.5152106  0.1811668  0.5666001    0.00000       Uiso       1.00
      C253          C  0.3349664  0.0603228  0.2137733    0.00000       Uiso       1.00
      C254          C  0.8349664  0.5603228  0.7137734    0.00000       Uiso       1.00
      C255          C  0.1650337  0.9396772  0.7137734    0.00000       Uiso       1.00
      C256          C  0.6650337  0.4396772  0.2137733    0.00000       Uiso       1.00
      C257          C  0.6650337  0.5603228  0.2862267    0.00000       Uiso       1.00
      C258          C  0.1650337  0.0603228  0.7862267    0.00000       Uiso       1.00
      C259          C  0.8349664  0.4396772  0.7862267    0.00000       Uiso       1.00
      C260          C  0.3349664  0.9396772  0.2862267    0.00000       Uiso       1.00
      C261          C  0.2137733  0.3349664  0.0603228    0.00000       Uiso       1.00
      C262          C  0.7137734  0.8349664  0.5603228    0.00000       Uiso       1.00
      C263          C  0.7137734  0.1650337  0.9396772    0.00000       Uiso       1.00
      C264          C  0.2137733  0.6650337  0.4396772    0.00000       Uiso       1.00
      C265          C  0.2862267  0.6650337  0.5603228    0.00000       Uiso       1.00
      C266          C  0.7862267  0.1650337  0.0603228    0.00000       Uiso       1.00
      C267          C  0.7862267  0.8349664  0.4396772    0.00000       Uiso       1.00
      C268          C  0.2862267  0.3349664  0.9396772    0.00000       Uiso       1.00
      C269          C  0.0603228  0.2137733  0.3349664    0.00000       Uiso       1.00
      C270          C  0.5603228  0.7137734  0.8349664    0.00000       Uiso       1.00
      C271          C  0.9396772  0.7137734  0.1650337    0.00000       Uiso       1.00
      C272          C  0.4396772  0.2137733  0.6650337    0.00000       Uiso       1.00
      C273          C  0.5603228  0.2862267  0.6650337    0.00000       Uiso       1.00
      C274          C  0.0603228  0.7862267  0.1650337    0.00000       Uiso       1.00
      C275          C  0.4396772  0.7862267  0.8349664    0.00000       Uiso       1.00
      C276          C  0.9396772  0.2862267  0.3349664    0.00000       Uiso       1.00
      C277          C  0.3103228  0.5849664  0.4637734    0.00000       Uiso       1.00
      C278          C  0.8103229  0.0849664  0.9637734    0.00000       Uiso       1.00
      C279          C  0.1896772  0.4150337  0.9637734    0.00000       Uiso       1.00
      C280          C  0.6896772  0.9150337  0.4637734    0.00000       Uiso       1.00
      C281          C  0.8103229  0.9150337  0.5362267    0.00000       Uiso       1.00
      C282          C  0.3103228  0.4150337  0.0362267    0.00000       Uiso       1.00
      C283          C  0.6896772  0.0849664  0.0362267    0.00000       Uiso       1.00
      C284          C  0.1896772  0.5849664  0.5362267    0.00000       Uiso       1.00
      C285          C  0.5849664  0.4637734  0.3103228    0.00000       Uiso       1.00
      C286          C  0.0849664  0.9637734  0.8103229    0.00000       Uiso       1.00
      C287          C  0.4150337  0.9637734  0.1896772    0.00000       Uiso       1.00
      C288          C  0.9150337  0.4637734  0.6896772    0.00000       Uiso       1.00
      C289          C  0.9150337  0.5362267  0.8103229    0.00000       Uiso       1.00
      C290          C  0.4150337  0.0362267  0.3103228    0.00000       Uiso       1.00
      C291          C  0.0849664  0.0362267  0.6896772    0.00000       Uiso       1.00
      C292          C  0.5849664  0.5362267  0.1896772    0.00000       Uiso       1.00
      C293          C  0.4637734  0.3103228  0.5849664    0.00000       Uiso       1.00
      C294          C  0.9637734  0.8103229  0.0849664    0.00000       Uiso       1.00
      C295          C  0.9637734  0.1896772  0.4150337    0.00000       Uiso       1.00
      C296          C  0.4637734  0.6896772  0.9150337    0.00000       Uiso       1.00
      C297          C  0.5362267  0.8103229  0.9150337    0.00000       Uiso       1.00
      C298          C  0.0362267  0.3103228  0.4150337    0.00000       Uiso       1.00
      C299          C  0.0362267  0.6896772  0.0849664    0.00000       Uiso       1.00
      C300          C  0.5362267  0.1896772  0.5849664    0.00000       Uiso       1.00
        H1          H  0.3652560  0.0323649  0.2017724    0.00000       Uiso       1.00
        H2          H  0.8652560  0.5323649  0.7017723    0.00000       Uiso       1.00
        H3          H  0.1347440  0.9676352  0.7017723    0.00000       Uiso       1.00
        H4          H  0.6347440  0.4676351  0.2017724    0.00000       Uiso       1.00
        H5          H  0.6347440  0.5323649  0.2982277    0.00000       Uiso       1.00
        H6          H  0.1347440  0.0323649  0.7982277    0.00000       Uiso       1.00
        H7          H  0.8652560  0.4676351  0.7982277    0.00000       Uiso       1.00
        H8          H  0.3652560  0.9676352  0.2982277    0.00000       Uiso       1.00
        H9          H  0.2017724  0.3652560  0.0323649    0.00000       Uiso       1.00
       H10          H  0.7017723  0.8652560  0.5323649    0.00000       Uiso       1.00
       H11          H  0.7017723  0.1347440  0.9676352    0.00000       Uiso       1.00
       H12          H  0.2017724  0.6347440  0.4676351    0.00000       Uiso       1.00
       H13          H  0.2982277  0.6347440  0.5323649    0.00000       Uiso       1.00
       H14          H  0.7982277  0.1347440  0.0323649    0.00000       Uiso       1.00
       H15          H  0.7982277  0.8652560  0.4676351    0.00000       Uiso       1.00
       H16          H  0.2982277  0.3652560  0.9676352    0.00000       Uiso       1.00
       H17          H  0.0323649  0.2017724  0.3652560    0.00000       Uiso       1.00
       H18          H  0.5323649  0.7017723  0.8652560    0.00000       Uiso       1.00
       H19          H  0.9676352  0.7017723  0.1347440    0.00000       Uiso       1.00
       H20          H  0.4676351  0.2017724  0.6347440    0.00000       Uiso       1.00
       H21          H  0.5323649  0.2982277  0.6347440    0.00000       Uiso       1.00
       H22          H  0.0323649  0.7982277  0.1347440    0.00000       Uiso       1.00
       H23          H  0.4676351  0.7982277  0.8652560    0.00000       Uiso       1.00
       H24          H  0.9676352  0.2982277  0.3652560    0.00000       Uiso       1.00
       H25          H  0.2823649  0.6152560  0.4517724    0.00000       Uiso       1.00
       H26          H  0.7823650  0.1152560  0.9517724    0.00000       Uiso       1.00
       H27          H  0.2176351  0.3847440  0.9517724    0.00000       Uiso       1.00
       H28          H  0.7176352  0.8847440  0.4517724    0.00000       Uiso       1.00
       H29          H  0.7823650  0.8847440  0.5482277    0.00000       Uiso       1.00
       H30          H  0.2823649  0.3847440  0.0482277    0.00000       Uiso       1.00
       H31          H  0.7176352  0.1152560  0.0482277    0.00000       Uiso       1.00
       H32          H  0.2176351  0.6152560  0.5482277    0.00000       Uiso       1.00
       H33          H  0.6152560  0.4517724  0.2823649    0.00000       Uiso       1.00
       H34          H  0.1152560  0.9517724  0.7823650    0.00000       Uiso       1.00
       H35          H  0.3847440  0.9517724  0.2176351    0.00000       Uiso       1.00
       H36          H  0.8847440  0.4517724  0.7176352    0.00000       Uiso       1.00
       H37          H  0.8847440  0.5482277  0.7823650    0.00000       Uiso       1.00
       H38          H  0.3847440  0.0482277  0.2823649    0.00000       Uiso       1.00
       H39          H  0.1152560  0.0482277  0.7176352    0.00000       Uiso       1.00
       H40          H  0.6152560  0.5482277  0.2176351    0.00000       Uiso       1.00
       H41          H  0.4517724  0.2823649  0.6152560    0.00000       Uiso       1.00
       H42          H  0.9517724  0.7823650  0.1152560    0.00000       Uiso       1.00
       H43          H  0.9517724  0.2176351  0.3847440    0.00000       Uiso       1.00
       H44          H  0.4517724  0.7176352  0.8847440    0.00000       Uiso       1.00
       H45          H  0.5482277  0.7823650  0.8847440    0.00000       Uiso       1.00
       H46          H  0.0482277  0.2823649  0.3847440    0.00000       Uiso       1.00
       H47          H  0.0482277  0.7176352  0.1152560    0.00000       Uiso       1.00
       H48          H  0.5482277  0.2176351  0.6152560    0.00000       Uiso       1.00
       H49          H  0.3349425  0.0701655  0.1949488    0.00000       Uiso       1.00
       H50          H  0.8349425  0.5701655  0.6949489    0.00000       Uiso       1.00
       H51          H  0.1650575  0.9298346  0.6949489    0.00000       Uiso       1.00
       H52          H  0.6650575  0.4298345  0.1949488    0.00000       Uiso       1.00
       H53          H  0.6650575  0.5701655  0.3050512    0.00000       Uiso       1.00
       H54          H  0.1650575  0.0701655  0.8050513    0.00000       Uiso       1.00
       H55          H  0.8349425  0.4298345  0.8050513    0.00000       Uiso       1.00
       H56          H  0.3349425  0.9298346  0.3050512    0.00000       Uiso       1.00
       H57          H  0.1949488  0.3349425  0.0701655    0.00000       Uiso       1.00
       H58          H  0.6949489  0.8349425  0.5701655    0.00000       Uiso       1.00
       H59          H  0.6949489  0.1650575  0.9298346    0.00000       Uiso       1.00
       H60          H  0.1949488  0.6650575  0.4298345    0.00000       Uiso       1.00
       H61          H  0.3050512  0.6650575  0.5701655    0.00000       Uiso       1.00
       H62          H  0.8050513  0.1650575  0.0701655    0.00000       Uiso       1.00
       H63          H  0.8050513  0.8349425  0.4298345    0.00000       Uiso       1.00
       H64          H  0.3050512  0.3349425  0.9298346    0.00000       Uiso       1.00
       H65          H  0.0701655  0.1949488  0.3349425    0.00000       Uiso       1.00
       H66          H  0.5701655  0.6949489  0.8349425    0.00000       Uiso       1.00
       H67          H  0.9298346  0.6949489  0.1650575    0.00000       Uiso       1.00
       H68          H  0.4298345  0.1949488  0.6650575    0.00000       Uiso       1.00
       H69          H  0.5701655  0.3050512  0.6650575    0.00000       Uiso       1.00
       H70          H  0.0701655  0.8050513  0.1650575    0.00000       Uiso       1.00
       H71          H  0.4298345  0.8050513  0.8349425    0.00000       Uiso       1.00
       H72          H  0.9298346  0.3050512  0.3349425    0.00000       Uiso       1.00
       H73          H  0.3201655  0.5849425  0.4449488    0.00000       Uiso       1.00
       H74          H  0.8201656  0.0849425  0.9449488    0.00000       Uiso       1.00
       H75          H  0.1798345  0.4150575  0.9449488    0.00000       Uiso       1.00
       H76          H  0.6798345  0.9150575  0.4449488    0.00000       Uiso       1.00
       H77          H  0.8201656  0.9150575  0.5550513    0.00000       Uiso       1.00
       H78          H  0.3201655  0.4150575  0.0550512    0.00000       Uiso       1.00
       H79          H  0.6798345  0.0849425  0.0550512    0.00000       Uiso       1.00
       H80          H  0.1798345  0.5849425  0.5550513    0.00000       Uiso       1.00
       H81          H  0.5849425  0.4449488  0.3201655    0.00000       Uiso       1.00
       H82          H  0.0849425  0.9449488  0.8201656    0.00000       Uiso       1.00
       H83          H  0.4150575  0.9449488  0.1798345    0.00000       Uiso       1.00
       H84          H  0.9150575  0.4449488  0.6798345    0.00000       Uiso       1.00
       H85          H  0.9150575  0.5550513  0.8201656    0.00000       Uiso       1.00
       H86          H  0.4150575  0.0550512  0.3201655    0.00000       Uiso       1.00
       H87          H  0.0849425  0.0550512  0.6798345    0.00000       Uiso       1.00
       H88          H  0.5849425  0.5550513  0.1798345    0.00000       Uiso       1.00
       H89          H  0.4449488  0.3201655  0.5849425    0.00000       Uiso       1.00
       H90          H  0.9449488  0.8201656  0.0849425    0.00000       Uiso       1.00
       H91          H  0.9449488  0.1798345  0.4150575    0.00000       Uiso       1.00
       H92          H  0.4449488  0.6798345  0.9150575    0.00000       Uiso       1.00
       H93          H  0.5550513  0.8201656  0.9150575    0.00000       Uiso       1.00
       H94          H  0.0550512  0.3201655  0.4150575    0.00000       Uiso       1.00
       H95          H  0.0550512  0.6798345  0.0849425    0.00000       Uiso       1.00
       H96          H  0.5550513  0.1798345  0.5849425    0.00000       Uiso       1.00
       H97          H  0.3353329  0.0229270  0.2834058    0.00000       Uiso       1.00
       H98          H  0.8353329  0.5229270  0.7834058    0.00000       Uiso       1.00
       H99          H  0.1646671  0.9770730  0.7834058    0.00000       Uiso       1.00
      H100          H  0.6646671  0.4770730  0.2834058    0.00000       Uiso       1.00
      H101          H  0.6646671  0.5229270  0.2165942    0.00000       Uiso       1.00
      H102          H  0.1646671  0.0229270  0.7165943    0.00000       Uiso       1.00
      H103          H  0.8353329  0.4770730  0.7165943    0.00000       Uiso       1.00
      H104          H  0.3353329  0.9770730  0.2165942    0.00000       Uiso       1.00
      H105          H  0.2834058  0.3353329  0.0229270    0.00000       Uiso       1.00
      H106          H  0.7834058  0.8353329  0.5229270    0.00000       Uiso       1.00
      H107          H  0.7834058  0.1646671  0.9770730    0.00000       Uiso       1.00
      H108          H  0.2834058  0.6646671  0.4770730    0.00000       Uiso       1.00
      H109          H  0.2165942  0.6646671  0.5229270    0.00000       Uiso       1.00
      H110          H  0.7165943  0.1646671  0.0229270    0.00000       Uiso       1.00
      H111          H  0.7165943  0.8353329  0.4770730    0.00000       Uiso       1.00
      H112          H  0.2165942  0.3353329  0.9770730    0.00000       Uiso       1.00
      H113          H  0.0229270  0.2834058  0.3353329    0.00000       Uiso       1.00
      H114          H  0.5229270  0.7834058  0.8353329    0.00000       Uiso       1.00
      H115          H  0.9770730  0.7834058  0.1646671    0.00000       Uiso       1.00
      H116          H  0.4770730  0.2834058  0.6646671    0.00000       Uiso       1.00
      H117          H  0.5229270  0.2165942  0.6646671    0.00000       Uiso       1.00
      H118          H  0.0229270  0.7165943  0.1646671    0.00000       Uiso       1.00
      H119          H  0.4770730  0.7165943  0.8353329    0.00000       Uiso       1.00
      H120          H  0.9770730  0.2165942  0.3353329    0.00000       Uiso       1.00
      H121          H  0.2729270  0.5853329  0.5334058    0.00000       Uiso       1.00
      H122          H  0.7729270  0.0853329  0.0334058    0.00000       Uiso       1.00
      H123          H  0.2270730  0.4146671  0.0334058    0.00000       Uiso       1.00
      H124          H  0.7270730  0.9146672  0.5334058    0.00000       Uiso       1.00
      H125          H  0.7729270  0.9146672  0.4665942    0.00000       Uiso       1.00
      H126          H  0.2729270  0.4146671  0.9665943    0.00000       Uiso       1.00
      H127          H  0.7270730  0.0853329  0.9665943    0.00000       Uiso       1.00
      H128          H  0.2270730  0.5853329  0.4665942    0.00000       Uiso       1.00
      H129          H  0.5853329  0.5334058  0.2729270    0.00000       Uiso       1.00
      H130          H  0.0853329  0.0334058  0.7729270    0.00000       Uiso       1.00
      H131          H  0.4146671  0.0334058  0.2270730    0.00000       Uiso       1.00
      H132          H  0.9146672  0.5334058  0.7270730    0.00000       Uiso       1.00
      H133          H  0.9146672  0.4665942  0.7729270    0.00000       Uiso       1.00
      H134          H  0.4146671  0.9665943  0.2729270    0.00000       Uiso       1.00
      H135          H  0.0853329  0.9665943  0.7270730    0.00000       Uiso       1.00
      H136          H  0.5853329  0.4665942  0.2270730    0.00000       Uiso       1.00
      H137          H  0.5334058  0.2729270  0.5853329    0.00000       Uiso       1.00
      H138          H  0.0334058  0.7729270  0.0853329    0.00000       Uiso       1.00
      H139          H  0.0334058  0.2270730  0.4146671    0.00000       Uiso       1.00
      H140          H  0.5334058  0.7270730  0.9146672    0.00000       Uiso       1.00
      H141          H  0.4665942  0.7729270  0.9146672    0.00000       Uiso       1.00
      H142          H  0.9665943  0.2729270  0.4146671    0.00000       Uiso       1.00
      H143          H  0.9665943  0.7270730  0.0853329    0.00000       Uiso       1.00
      H144          H  0.4665942  0.2270730  0.5853329    0.00000       Uiso       1.00
      H145          H  0.3034638  0.0599628  0.2757243    0.00000       Uiso       1.00
      H146          H  0.8034638  0.5599628  0.7757244    0.00000       Uiso       1.00
      H147          H  0.1965362  0.9400373  0.7757244    0.00000       Uiso       1.00
      H148          H  0.6965362  0.4400373  0.2757243    0.00000       Uiso       1.00
      H149          H  0.6965362  0.5599628  0.2242757    0.00000       Uiso       1.00
      H150          H  0.1965362  0.0599628  0.7242757    0.00000       Uiso       1.00
      H151          H  0.8034638  0.4400373  0.7242757    0.00000       Uiso       1.00
      H152          H  0.3034638  0.9400373  0.2242757    0.00000       Uiso       1.00
      H153          H  0.2757243  0.3034638  0.0599628    0.00000       Uiso       1.00
      H154          H  0.7757244  0.8034638  0.5599628    0.00000       Uiso       1.00
      H155          H  0.7757244  0.1965362  0.9400373    0.00000       Uiso       1.00
      H156          H  0.2757243  0.6965362  0.4400373    0.00000       Uiso       1.00
      H157          H  0.2242757  0.6965362  0.5599628    0.00000       Uiso       1.00
      H158          H  0.7242757  0.1965362  0.0599628    0.00000       Uiso       1.00
      H159          H  0.7242757  0.8034638  0.4400373    0.00000       Uiso       1.00
      H160          H  0.2242757  0.3034638  0.9400373    0.00000       Uiso       1.00
      H161          H  0.0599628  0.2757243  0.3034638    0.00000       Uiso       1.00
      H162          H  0.5599628  0.7757244  0.8034638    0.00000       Uiso       1.00
      H163          H  0.9400373  0.7757244  0.1965362    0.00000       Uiso       1.00
      H164          H  0.4400373  0.2757243  0.6965362    0.00000       Uiso       1.00
      H165          H  0.5599628  0.2242757  0.6965362    0.00000       Uiso       1.00
      H166          H  0.0599628  0.7242757  0.1965362    0.00000       Uiso       1.00
      H167          H  0.4400373  0.7242757  0.8034638    0.00000       Uiso       1.00
      H168          H  0.9400373  0.2242757  0.3034638    0.00000       Uiso       1.00
      H169          H  0.3099627  0.5534638  0.5257244    0.00000       Uiso       1.00
      H170          H  0.8099628  0.0534638  0.0257243    0.00000       Uiso       1.00
      H171          H  0.1900373  0.4465362  0.0257243    0.00000       Uiso       1.00
      H172          H  0.6900373  0.9465362  0.5257244    0.00000       Uiso       1.00
      H173          H  0.8099628  0.9465362  0.4742757    0.00000       Uiso       1.00
      H174          H  0.3099627  0.4465362  0.9742757    0.00000       Uiso       1.00
      H175          H  0.6900373  0.0534638  0.9742757    0.00000       Uiso       1.00
      H176          H  0.1900373  0.5534638  0.4742757    0.00000       Uiso       1.00
      H177          H  0.5534638  0.5257244  0.3099627    0.00000       Uiso       1.00
      H178          H  0.0534638  0.0257243  0.8099628    0.00000       Uiso       1.00
      H179          H  0.4465362  0.0257243  0.1900373    0.00000       Uiso       1.00
      H180          H  0.9465362  0.5257244  0.6900373    0.00000       Uiso       1.00
      H181          H  0.9465362  0.4742757  0.8099628    0.00000       Uiso       1.00
      H182          H  0.4465362  0.9742757  0.3099627    0.00000       Uiso       1.00
      H183          H  0.0534638  0.9742757  0.6900373    0.00000       Uiso       1.00
      H184          H  0.5534638  0.4742757  0.1900373    0.00000       Uiso       1.00
      H185          H  0.5257244  0.3099627  0.5534638    0.00000       Uiso       1.00
      H186          H  0.0257243  0.8099628  0.0534638    0.00000       Uiso       1.00
      H187          H  0.0257243  0.1900373  0.4465362    0.00000       Uiso       1.00
      H188          H  0.5257244  0.6900373  0.9465362    0.00000       Uiso       1.00
      H189          H  0.4742757  0.8099628  0.9465362    0.00000       Uiso       1.00
      H190          H  0.9742757  0.3099627  0.4465362    0.00000       Uiso       1.00
      H191          H  0.9742757  0.6900373  0.0534638    0.00000       Uiso       1.00
      H192          H  0.4742757  0.1900373  0.5534638    0.00000       Uiso       1.00
      C301          C  0.4721096  0.0388876  0.3791234    0.00000       Uiso       1.00
      C302          C  0.9721096  0.5388876  0.8791234    0.00000       Uiso       1.00
      C303          C  0.0278904  0.9611124  0.8791234    0.00000       Uiso       1.00
      C304          C  0.5278904  0.4611124  0.3791234    0.00000       Uiso       1.00
      C305          C  0.5278904  0.5388876  0.1208767    0.00000       Uiso       1.00
      C306          C  0.0278904  0.0388876  0.6208767    0.00000       Uiso       1.00
      C307          C  0.9721096  0.4611124  0.6208767    0.00000       Uiso       1.00
      C308          C  0.4721096  0.9611124  0.1208767    0.00000       Uiso       1.00
      C309          C  0.3791234  0.4721096  0.0388876    0.00000       Uiso       1.00
      C310          C  0.8791234  0.9721096  0.5388876    0.00000       Uiso       1.00
      C311          C  0.8791234  0.0278904  0.9611124    0.00000       Uiso       1.00
      C312          C  0.3791234  0.5278904  0.4611124    0.00000       Uiso       1.00
      C313          C  0.1208767  0.5278904  0.5388876    0.00000       Uiso       1.00
      C314          C  0.6208767  0.0278904  0.0388876    0.00000       Uiso       1.00
      C315          C  0.6208767  0.9721096  0.4611124    0.00000       Uiso       1.00
      C316          C  0.1208767  0.4721096  0.9611124    0.00000       Uiso       1.00
      C317          C  0.0388876  0.3791234  0.4721096    0.00000       Uiso       1.00
      C318          C  0.5388876  0.8791234  0.9721096    0.00000       Uiso       1.00
      C319          C  0.9611124  0.8791234  0.0278904    0.00000       Uiso       1.00
      C320          C  0.4611124  0.3791234  0.5278904    0.00000       Uiso       1.00
      C321          C  0.5388876  0.1208767  0.5278904    0.00000       Uiso       1.00
      C322          C  0.0388876  0.6208767  0.0278904    0.00000       Uiso       1.00
      C323          C  0.4611124  0.6208767  0.9721096    0.00000       Uiso       1.00
      C324          C  0.9611124  0.1208767  0.4721096    0.00000       Uiso       1.00
      C325          C  0.2888876  0.7221096  0.6291233    0.00000       Uiso       1.00
      C326          C  0.7888876  0.2221096  0.1291233    0.00000       Uiso       1.00
      C327          C  0.2111124  0.2778904  0.1291233    0.00000       Uiso       1.00
      C328          C  0.7111124  0.7778904  0.6291233    0.00000       Uiso       1.00
      C329          C  0.7888876  0.7778904  0.3708767    0.00000       Uiso       1.00
      C330          C  0.2888876  0.2778904  0.8708767    0.00000       Uiso       1.00
      C331          C  0.7111124  0.2221096  0.8708767    0.00000       Uiso       1.00
      C332          C  0.2111124  0.7221096  0.3708767    0.00000       Uiso       1.00
      C333          C  0.7221096  0.6291233  0.2888876    0.00000       Uiso       1.00
      C334          C  0.2221096  0.1291233  0.7888876    0.00000       Uiso       1.00
      C335          C  0.2778904  0.1291233  0.2111124    0.00000       Uiso       1.00
      C336          C  0.7778904  0.6291233  0.7111124    0.00000       Uiso       1.00
      C337          C  0.7778904  0.3708767  0.7888876    0.00000       Uiso       1.00
      C338          C  0.2778904  0.8708767  0.2888876    0.00000       Uiso       1.00
      C339          C  0.2221096  0.8708767  0.7111124    0.00000       Uiso       1.00
      C340          C  0.7221096  0.3708767  0.2111124    0.00000       Uiso       1.00
      C341          C  0.6291233  0.2888876  0.7221096    0.00000       Uiso       1.00
      C342          C  0.1291233  0.7888876  0.2221096    0.00000       Uiso       1.00
      C343          C  0.1291233  0.2111124  0.2778904    0.00000       Uiso       1.00
      C344          C  0.6291233  0.7111124  0.7778904    0.00000       Uiso       1.00
      C345          C  0.3708767  0.7888876  0.7778904    0.00000       Uiso       1.00
      C346          C  0.8708767  0.2888876  0.2778904    0.00000       Uiso       1.00
      C347          C  0.8708767  0.7111124  0.2221096    0.00000       Uiso       1.00
      C348          C  0.3708767  0.2111124  0.7221096    0.00000       Uiso       1.00
      C349          C  0.4796060  0.0551488  0.4019173    0.00000       Uiso       1.00
      C350          C  0.9796060  0.5551488  0.9019173    0.00000       Uiso       1.00
      C351          C  0.0203940  0.9448513  0.9019173    0.00000       Uiso       1.00
      C352          C  0.5203940  0.4448513  0.4019173    0.00000       Uiso       1.00
      C353          C  0.5203940  0.5551488  0.0980827    0.00000       Uiso       1.00
      C354          C  0.0203940  0.0551488  0.5980827    0.00000       Uiso       1.00
      C355          C  0.9796060  0.4448513  0.5980827    0.00000       Uiso       1.00
      C356          C  0.4796060  0.9448513  0.0980827    0.00000       Uiso       1.00
      C357          C  0.4019173  0.4796060  0.0551488    0.00000       Uiso       1.00
      C358          C  0.9019173  0.9796060  0.5551488    0.00000       Uiso       1.00
      C359          C  0.9019173  0.0203940  0.9448513    0.00000       Uiso       1.00
      C360          C  0.4019173  0.5203940  0.4448513    0.00000       Uiso       1.00
      C361          C  0.0980827  0.5203940  0.5551488    0.00000       Uiso       1.00
      C362          C  0.5980827  0.0203940  0.0551488    0.00000       Uiso       1.00
      C363          C  0.5980827  0.9796060  0.4448513    0.00000       Uiso       1.00
      C364          C  0.0980827  0.4796060  0.9448513    0.00000       Uiso       1.00
      C365          C  0.0551488  0.4019173  0.4796060    0.00000       Uiso       1.00
      C366          C  0.5551488  0.9019173  0.9796060    0.00000       Uiso       1.00
      C367          C  0.9448513  0.9019173  0.0203940    0.00000       Uiso       1.00
      C368          C  0.4448513  0.4019173  0.5203940    0.00000       Uiso       1.00
      C369          C  0.5551488  0.0980827  0.5203940    0.00000       Uiso       1.00
      C370          C  0.0551488  0.5980827  0.0203940    0.00000       Uiso       1.00
      C371          C  0.4448513  0.5980827  0.9796060    0.00000       Uiso       1.00
      C372          C  0.9448513  0.0980827  0.4796060    0.00000       Uiso       1.00
      C373          C  0.3051488  0.7296060  0.6519173    0.00000       Uiso       1.00
      C374          C  0.8051488  0.2296060  0.1519173    0.00000       Uiso       1.00
      C375          C  0.1948512  0.2703940  0.1519173    0.00000       Uiso       1.00
      C376          C  0.6948513  0.7703940  0.6519173    0.00000       Uiso       1.00
      C377          C  0.8051488  0.7703940  0.3480827    0.00000       Uiso       1.00
      C378          C  0.3051488  0.2703940  0.8480828    0.00000       Uiso       1.00
      C379          C  0.6948513  0.2296060  0.8480828    0.00000       Uiso       1.00
      C380          C  0.1948512  0.7296060  0.3480827    0.00000       Uiso       1.00
      C381          C  0.7296060  0.6519173  0.3051488    0.00000       Uiso       1.00
      C382          C  0.2296060  0.1519173  0.8051488    0.00000       Uiso       1.00
      C383          C  0.2703940  0.1519173  0.1948512    0.00000       Uiso       1.00
      C384          C  0.7703940  0.6519173  0.6948513    0.00000       Uiso       1.00
      C385          C  0.7703940  0.3480827  0.8051488    0.00000       Uiso       1.00
      C386          C  0.2703940  0.8480828  0.3051488    0.00000       Uiso       1.00
      C387          C  0.2296060  0.8480828  0.6948513    0.00000       Uiso       1.00
      C388          C  0.7296060  0.3480827  0.1948512    0.00000       Uiso       1.00
      C389          C  0.6519173  0.3051488  0.7296060    0.00000       Uiso       1.00
      C390          C  0.1519173  0.8051488  0.2296060    0.00000       Uiso       1.00
      C391          C  0.1519173  0.1948512  0.2703940    0.00000       Uiso       1.00
      C392          C  0.6519173  0.6948513  0.7703940    0.00000       Uiso       1.00
      C393          C  0.3480827  0.8051488  0.7703940    0.00000       Uiso       1.00
      C394          C  0.8480828  0.3051488  0.2703940    0.00000       Uiso       1.00
      C395          C  0.8480828  0.6948513  0.2296060    0.00000       Uiso       1.00
      C396          C  0.3480827  0.1948512  0.7296060    0.00000       Uiso       1.00
      C397          C  0.5088055  0.0621934  0.4398583    0.00000       Uiso       1.00
      C398          C  0.0088054  0.5621934  0.9398583    0.00000       Uiso       1.00
      C399          C  0.9911947  0.9378067  0.9398583    0.00000       Uiso       1.00
      C400          C  0.4911946  0.4378066  0.4398583    0.00000       Uiso       1.00
      C401          C  0.4911946  0.5621934  0.0601417    0.00000       Uiso       1.00
      C402          C  0.9911947  0.0621934  0.5601417    0.00000       Uiso       1.00
      C403          C  0.0088054  0.4378066  0.5601417    0.00000       Uiso       1.00
      C404          C  0.5088055  0.9378067  0.0601417    0.00000       Uiso       1.00
      C405          C  0.4398583  0.5088055  0.0621934    0.00000       Uiso       1.00
      C406          C  0.9398583  0.0088054  0.5621934    0.00000       Uiso       1.00
      C407          C  0.9398583  0.9911947  0.9378067    0.00000       Uiso       1.00
      C408          C  0.4398583  0.4911946  0.4378066    0.00000       Uiso       1.00
      C409          C  0.0601417  0.4911946  0.5621934    0.00000       Uiso       1.00
      C410          C  0.5601417  0.9911947  0.0621934    0.00000       Uiso       1.00
      C411          C  0.5601417  0.0088054  0.4378066    0.00000       Uiso       1.00
      C412          C  0.0601417  0.5088055  0.9378067    0.00000       Uiso       1.00
      C413          C  0.0621934  0.4398583  0.5088055    0.00000       Uiso       1.00
      C414          C  0.5621934  0.9398583  0.0088054    0.00000       Uiso       1.00
      C415          C  0.9378067  0.9398583  0.9911947    0.00000       Uiso       1.00
      C416          C  0.4378066  0.4398583  0.4911946    0.00000       Uiso       1.00
      C417          C  0.5621934  0.0601417  0.4911946    0.00000       Uiso       1.00
      C418          C  0.0621934  0.5601417  0.9911947    0.00000       Uiso       1.00
      C419          C  0.4378066  0.5601417  0.0088054    0.00000       Uiso       1.00
      C420          C  0.9378067  0.0601417  0.5088055    0.00000       Uiso       1.00
      C421          C  0.3121934  0.7588054  0.6898583    0.00000       Uiso       1.00
      C422          C  0.8121934  0.2588054  0.1898583    0.00000       Uiso       1.00
      C423          C  0.1878066  0.2411946  0.1898583    0.00000       Uiso       1.00
      C424          C  0.6878067  0.7411946  0.6898583    0.00000       Uiso       1.00
      C425          C  0.8121934  0.7411946  0.3101417    0.00000       Uiso       1.00
      C426          C  0.3121934  0.2411946  0.8101417    0.00000       Uiso       1.00
      C427          C  0.6878067  0.2588054  0.8101417    0.00000       Uiso       1.00
      C428          C  0.1878066  0.7588054  0.3101417    0.00000       Uiso       1.00
      C429          C  0.7588054  0.6898583  0.3121934    0.00000       Uiso       1.00
      C430          C  0.2588054  0.1898583  0.8121934    0.00000       Uiso       1.00
      C431          C  0.2411946  0.1898583  0.1878066    0.00000       Uiso       1.00
      C432          C  0.7411946  0.6898583  0.6878067    0.00000       Uiso       1.00
      C433          C  0.7411946  0.3101417  0.8121934    0.00000       Uiso       1.00
      C434          C  0.2411946  0.8101417  0.3121934    0.00000       Uiso       1.00
      C435          C  0.2588054  0.8101417  0.6878067    0.00000       Uiso       1.00
      C436          C  0.7588054  0.3101417  0.1878066    0.00000       Uiso       1.00
      C437          C  0.6898583  0.3121934  0.7588054    0.00000       Uiso       1.00
      C438          C  0.1898583  0.8121934  0.2588054    0.00000       Uiso       1.00
      C439          C  0.1898583  0.1878066  0.2411946    0.00000       Uiso       1.00
      C440          C  0.6898583  0.6878067  0.7411946    0.00000       Uiso       1.00
      C441          C  0.3101417  0.8121934  0.7411946    0.00000       Uiso       1.00
      C442          C  0.8101417  0.3121934  0.2411946    0.00000       Uiso       1.00
      C443          C  0.8101417  0.6878067  0.2588054    0.00000       Uiso       1.00
      C444          C  0.3101417  0.1878066  0.7588054    0.00000       Uiso       1.00
      C445          C  0.5026209  0.0470384  0.4182065    0.00000       Uiso       1.00
      C446          C  0.0026208  0.5470384  0.9182065    0.00000       Uiso       1.00
      C447          C  0.9973792  0.9529617  0.9182065    0.00000       Uiso       1.00
      C448          C  0.4973792  0.4529617  0.4182065    0.00000       Uiso       1.00
      C449          C  0.4973792  0.5470384  0.0817936    0.00000       Uiso       1.00
      C450          C  0.9973792  0.0470384  0.5817936    0.00000       Uiso       1.00
      C451          C  0.0026208  0.4529617  0.5817936    0.00000       Uiso       1.00
      C452          C  0.5026209  0.9529617  0.0817936    0.00000       Uiso       1.00
      C453          C  0.4182065  0.5026209  0.0470384    0.00000       Uiso       1.00
      C454          C  0.9182065  0.0026208  0.5470384    0.00000       Uiso       1.00
      C455          C  0.9182065  0.9973792  0.9529617    0.00000       Uiso       1.00
      C456          C  0.4182065  0.4973792  0.4529617    0.00000       Uiso       1.00
      C457          C  0.0817936  0.4973792  0.5470384    0.00000       Uiso       1.00
      C458          C  0.5817936  0.9973792  0.0470384    0.00000       Uiso       1.00
      C459          C  0.5817936  0.0026208  0.4529617    0.00000       Uiso       1.00
      C460          C  0.0817936  0.5026209  0.9529617    0.00000       Uiso       1.00
      C461          C  0.0470384  0.4182065  0.5026209    0.00000       Uiso       1.00
      C462          C  0.5470384  0.9182065  0.0026208    0.00000       Uiso       1.00
      C463          C  0.9529617  0.9182065  0.9973792    0.00000       Uiso       1.00
      C464          C  0.4529617  0.4182065  0.4973792    0.00000       Uiso       1.00
      C465          C  0.5470384  0.0817936  0.4973792    0.00000       Uiso       1.00
      C466          C  0.0470384  0.5817936  0.9973792    0.00000       Uiso       1.00
      C467          C  0.4529617  0.5817936  0.0026208    0.00000       Uiso       1.00
      C468          C  0.9529617  0.0817936  0.5026209    0.00000       Uiso       1.00
      C469          C  0.2970384  0.7526209  0.6682065    0.00000       Uiso       1.00
      C470          C  0.7970384  0.2526208  0.1682064    0.00000       Uiso       1.00
      C471          C  0.2029617  0.2473792  0.1682064    0.00000       Uiso       1.00
      C472          C  0.7029617  0.7473792  0.6682065    0.00000       Uiso       1.00
      C473          C  0.7970384  0.7473792  0.3317936    0.00000       Uiso       1.00
      C474          C  0.2970384  0.2473792  0.8317936    0.00000       Uiso       1.00
      C475          C  0.7029617  0.2526208  0.8317936    0.00000       Uiso       1.00
      C476          C  0.2029617  0.7526209  0.3317936    0.00000       Uiso       1.00
      C477          C  0.7526209  0.6682065  0.2970384    0.00000       Uiso       1.00
      C478          C  0.2526208  0.1682064  0.7970384    0.00000       Uiso       1.00
      C479          C  0.2473792  0.1682064  0.2029617    0.00000       Uiso       1.00
      C480          C  0.7473792  0.6682065  0.7029617    0.00000       Uiso       1.00
      C481          C  0.7473792  0.3317936  0.7970384    0.00000       Uiso       1.00
      C482          C  0.2473792  0.8317936  0.2970384    0.00000       Uiso       1.00
      C483          C  0.2526208  0.8317936  0.7029617    0.00000       Uiso       1.00
      C484          C  0.7526209  0.3317936  0.2029617    0.00000       Uiso       1.00
      C485          C  0.6682065  0.2970384  0.7526209    0.00000       Uiso       1.00
      C486          C  0.1682064  0.7970384  0.2526208    0.00000       Uiso       1.00
      C487          C  0.1682064  0.2029617  0.2473792    0.00000       Uiso       1.00
      C488          C  0.6682065  0.7029617  0.7473792    0.00000       Uiso       1.00
      C489          C  0.3317936  0.7970384  0.7473792    0.00000       Uiso       1.00
      C490          C  0.8317936  0.2970384  0.2473792    0.00000       Uiso       1.00
      C491          C  0.8317936  0.7029617  0.2526208    0.00000       Uiso       1.00
      C492          C  0.3317936  0.2029617  0.7526209    0.00000       Uiso       1.00
        O1          O  0.4511155  0.0431511  0.3612562    0.00000       Uiso       1.00
        O2          O  0.9511155  0.5431511  0.8612562    0.00000       Uiso       1.00
        O3          O  0.0488845  0.9568490  0.8612562    0.00000       Uiso       1.00
        O4          O  0.5488846  0.4568489  0.3612562    0.00000       Uiso       1.00
        O5          O  0.5488846  0.5431511  0.1387438    0.00000       Uiso       1.00
        O6          O  0.0488845  0.0431511  0.6387438    0.00000       Uiso       1.00
        O7          O  0.9511155  0.4568489  0.6387438    0.00000       Uiso       1.00
        O8          O  0.4511155  0.9568490  0.1387438    0.00000       Uiso       1.00
        O9          O  0.3612562  0.4511155  0.0431511    0.00000       Uiso       1.00
       O10          O  0.8612562  0.9511155  0.5431511    0.00000       Uiso       1.00
       O11          O  0.8612562  0.0488845  0.9568490    0.00000       Uiso       1.00
       O12          O  0.3612562  0.5488846  0.4568489    0.00000       Uiso       1.00
       O13          O  0.1387438  0.5488846  0.5431511    0.00000       Uiso       1.00
       O14          O  0.6387438  0.0488845  0.0431511    0.00000       Uiso       1.00
       O15          O  0.6387438  0.9511155  0.4568489    0.00000       Uiso       1.00
       O16          O  0.1387438  0.4511155  0.9568490    0.00000       Uiso       1.00
       O17          O  0.0431511  0.3612562  0.4511155    0.00000       Uiso       1.00
       O18          O  0.5431511  0.8612562  0.9511155    0.00000       Uiso       1.00
       O19          O  0.9568490  0.8612562  0.0488845    0.00000       Uiso       1.00
       O20          O  0.4568489  0.3612562  0.5488846    0.00000       Uiso       1.00
       O21          O  0.5431511  0.1387438  0.5488846    0.00000       Uiso       1.00
       O22          O  0.0431511  0.6387438  0.0488845    0.00000       Uiso       1.00
       O23          O  0.4568489  0.6387438  0.9511155    0.00000       Uiso       1.00
       O24          O  0.9568490  0.1387438  0.4511155    0.00000       Uiso       1.00
       O25          O  0.2931511  0.7011155  0.6112562    0.00000       Uiso       1.00
       O26          O  0.7931511  0.2011155  0.1112562    0.00000       Uiso       1.00
       O27          O  0.2068489  0.2988845  0.1112562    0.00000       Uiso       1.00
       O28          O  0.7068489  0.7988845  0.6112562    0.00000       Uiso       1.00
       O29          O  0.7931511  0.7988845  0.3887438    0.00000       Uiso       1.00
       O30          O  0.2931511  0.2988845  0.8887439    0.00000       Uiso       1.00
       O31          O  0.7068489  0.2011155  0.8887439    0.00000       Uiso       1.00
       O32          O  0.2068489  0.7011155  0.3887438    0.00000       Uiso       1.00
       O33          O  0.7011155  0.6112562  0.2931511    0.00000       Uiso       1.00
       O34          O  0.2011155  0.1112562  0.7931511    0.00000       Uiso       1.00
       O35          O  0.2988845  0.1112562  0.2068489    0.00000       Uiso       1.00
       O36          O  0.7988845  0.6112562  0.7068489    0.00000       Uiso       1.00
       O37          O  0.7988845  0.3887438  0.7931511    0.00000       Uiso       1.00
       O38          O  0.2988845  0.8887439  0.2931511    0.00000       Uiso       1.00
       O39          O  0.2011155  0.8887439  0.7068489    0.00000       Uiso       1.00
       O40          O  0.7011155  0.3887438  0.2068489    0.00000       Uiso       1.00
       O41          O  0.6112562  0.2931511  0.7011155    0.00000       Uiso       1.00
       O42          O  0.1112562  0.7931511  0.2011155    0.00000       Uiso       1.00
       O43          O  0.1112562  0.2068489  0.2988845    0.00000       Uiso       1.00
       O44          O  0.6112562  0.7068489  0.7988845    0.00000       Uiso       1.00
       O45          O  0.3887438  0.7931511  0.7988845    0.00000       Uiso       1.00
       O46          O  0.8887439  0.2931511  0.2988845    0.00000       Uiso       1.00
       O47          O  0.8887439  0.7068489  0.2011155    0.00000       Uiso       1.00
       O48          O  0.3887438  0.2068489  0.7011155    0.00000       Uiso       1.00
      C493          C  0.5148779  0.1275990  0.5132974    0.00000       Uiso       1.00
      C494          C  0.0148779  0.6275990  0.0132974    0.00000       Uiso       1.00
      C495          C  0.9851222  0.8724011  0.0132974    0.00000       Uiso       1.00
      C496          C  0.4851221  0.3724010  0.5132974    0.00000       Uiso       1.00
      C497          C  0.4851221  0.6275990  0.9867027    0.00000       Uiso       1.00
      C498          C  0.9851222  0.1275990  0.4867026    0.00000       Uiso       1.00
      C499          C  0.0148779  0.3724010  0.4867026    0.00000       Uiso       1.00
      C500          C  0.5148779  0.8724011  0.9867027    0.00000       Uiso       1.00
      C501          C  0.5132974  0.5148779  0.1275990    0.00000       Uiso       1.00
      C502          C  0.0132974  0.0148779  0.6275990    0.00000       Uiso       1.00
      C503          C  0.0132974  0.9851222  0.8724011    0.00000       Uiso       1.00
      C504          C  0.5132974  0.4851221  0.3724010    0.00000       Uiso       1.00
      C505          C  0.9867027  0.4851221  0.6275990    0.00000       Uiso       1.00
      C506          C  0.4867026  0.9851222  0.1275990    0.00000       Uiso       1.00
      C507          C  0.4867026  0.0148779  0.3724010    0.00000       Uiso       1.00
      C508          C  0.9867027  0.5148779  0.8724011    0.00000       Uiso       1.00
      C509          C  0.1275990  0.5132974  0.5148779    0.00000       Uiso       1.00
      C510          C  0.6275990  0.0132974  0.0148779    0.00000       Uiso       1.00
      C511          C  0.8724011  0.0132974  0.9851222    0.00000       Uiso       1.00
      C512          C  0.3724010  0.5132974  0.4851221    0.00000       Uiso       1.00
      C513          C  0.6275990  0.9867027  0.4851221    0.00000       Uiso       1.00
      C514          C  0.1275990  0.4867026  0.9851222    0.00000       Uiso       1.00
      C515          C  0.3724010  0.4867026  0.0148779    0.00000       Uiso       1.00
      C516          C  0.8724011  0.9867027  0.5148779    0.00000       Uiso       1.00
      C517          C  0.3775990  0.7648779  0.7632974    0.00000       Uiso       1.00
      C518          C  0.8775990  0.2648779  0.2632974    0.00000       Uiso       1.00
      C519          C  0.1224010  0.2351221  0.2632974    0.00000       Uiso       1.00
      C520          C  0.6224011  0.7351221  0.7632974    0.00000       Uiso       1.00
      C521          C  0.8775990  0.7351221  0.2367026    0.00000       Uiso       1.00
      C522          C  0.3775990  0.2351221  0.7367026    0.00000       Uiso       1.00
      C523          C  0.6224011  0.2648779  0.7367026    0.00000       Uiso       1.00
      C524          C  0.1224010  0.7648779  0.2367026    0.00000       Uiso       1.00
      C525          C  0.7648779  0.7632974  0.3775990    0.00000       Uiso       1.00
      C526          C  0.2648779  0.2632974  0.8775990    0.00000       Uiso       1.00
      C527          C  0.2351221  0.2632974  0.1224010    0.00000       Uiso       1.00
      C528          C  0.7351221  0.7632974  0.6224011    0.00000       Uiso       1.00
      C529          C  0.7351221  0.2367026  0.8775990    0.00000       Uiso       1.00
      C530          C  0.2351221  0.7367026  0.3775990    0.00000       Uiso       1.00
      C531          C  0.2648779  0.7367026  0.6224011    0.00000       Uiso       1.00
      C532          C  0.7648779  0.2367026  0.1224010    0.00000       Uiso       1.00
      C533          C  0.7632974  0.3775990  0.7648779    0.00000       Uiso       1.00
      C534          C  0.2632974  0.8775990  0.2648779    0.00000       Uiso       1.00
      C535          C  0.2632974  0.1224010  0.2351221    0.00000       Uiso       1.00
      C536          C  0.7632974  0.6224011  0.7351221    0.00000       Uiso       1.00
      C537          C  0.2367026  0.8775990  0.7351221    0.00000       Uiso       1.00
      C538          C  0.7367026  0.3775990  0.2351221    0.00000       Uiso       1.00
      C539          C  0.7367026  0.6224011  0.2648779    0.00000       Uiso       1.00
      C540          C  0.2367026  0.1224010  0.7648779    0.00000       Uiso       1.00
      C541          C  0.5065978  0.1121296  0.4902088    0.00000       Uiso       1.00
      C542          C  0.0065977  0.6121296  0.9902089    0.00000       Uiso       1.00
      C543          C  0.9934024  0.8878705  0.9902089    0.00000       Uiso       1.00
      C544          C  0.4934023  0.3878704  0.4902088    0.00000       Uiso       1.00
      C545          C  0.4934023  0.6121296  0.0097912    0.00000       Uiso       1.00
      C546          C  0.9934024  0.1121296  0.5097912    0.00000       Uiso       1.00
      C547          C  0.0065977  0.3878704  0.5097912    0.00000       Uiso       1.00
      C548          C  0.5065978  0.8878705  0.0097912    0.00000       Uiso       1.00
      C549          C  0.4902088  0.5065978  0.1121296    0.00000       Uiso       1.00
      C550          C  0.9902089  0.0065977  0.6121296    0.00000       Uiso       1.00
      C551          C  0.9902089  0.9934024  0.8878705    0.00000       Uiso       1.00
      C552          C  0.4902088  0.4934023  0.3878704    0.00000       Uiso       1.00
      C553          C  0.0097912  0.4934023  0.6121296    0.00000       Uiso       1.00
      C554          C  0.5097912  0.9934024  0.1121296    0.00000       Uiso       1.00
      C555          C  0.5097912  0.0065977  0.3878704    0.00000       Uiso       1.00
      C556          C  0.0097912  0.5065978  0.8878705    0.00000       Uiso       1.00
      C557          C  0.1121296  0.4902088  0.5065978    0.00000       Uiso       1.00
      C558          C  0.6121296  0.9902089  0.0065977    0.00000       Uiso       1.00
      C559          C  0.8878705  0.9902089  0.9934024    0.00000       Uiso       1.00
      C560          C  0.3878704  0.4902088  0.4934023    0.00000       Uiso       1.00
      C561          C  0.6121296  0.0097912  0.4934023    0.00000       Uiso       1.00
      C562          C  0.1121296  0.5097912  0.9934024    0.00000       Uiso       1.00
      C563          C  0.3878704  0.5097912  0.0065977    0.00000       Uiso       1.00
      C564          C  0.8878705  0.0097912  0.5065978    0.00000       Uiso       1.00
      C565          C  0.3621296  0.7565978  0.7402089    0.00000       Uiso       1.00
      C566          C  0.8621297  0.2565977  0.2402088    0.00000       Uiso       1.00
      C567          C  0.1378704  0.2434023  0.2402088    0.00000       Uiso       1.00
      C568          C  0.6378704  0.7434023  0.7402089    0.00000       Uiso       1.00
      C569          C  0.8621297  0.7434023  0.2597912    0.00000       Uiso       1.00
      C570          C  0.3621296  0.2434023  0.7597912    0.00000       Uiso       1.00
      C571          C  0.6378704  0.2565977  0.7597912    0.00000       Uiso       1.00
      C572          C  0.1378704  0.7565978  0.2597912    0.00000       Uiso       1.00
      C573          C  0.7565978  0.7402089  0.3621296    0.00000       Uiso       1.00
      C574          C  0.2565977  0.2402088  0.8621297    0.00000       Uiso       1.00
      C575          C  0.2434023  0.2402088  0.1378704    0.00000       Uiso       1.00
      C576          C  0.7434023  0.7402089  0.6378704    0.00000       Uiso       1.00
      C577          C  0.7434023  0.2597912  0.8621297    0.00000       Uiso       1.00
      C578          C  0.2434023  0.7597912  0.3621296    0.00000       Uiso       1.00
      C579          C  0.2565977  0.7597912  0.6378704    0.00000       Uiso       1.00
      C580          C  0.7565978  0.2597912  0.1378704    0.00000       Uiso       1.00
      C581          C  0.7402089  0.3621296  0.7565978    0.00000       Uiso       1.00
      C582          C  0.2402088  0.8621297  0.2565977    0.00000       Uiso       1.00
      C583          C  0.2402088  0.1378704  0.2434023    0.00000       Uiso       1.00
      C584          C  0.7402089  0.6378704  0.7434023    0.00000       Uiso       1.00
      C585          C  0.2597912  0.8621297  0.7434023    0.00000       Uiso       1.00
      C586          C  0.7597912  0.3621296  0.2434023    0.00000       Uiso       1.00
      C587          C  0.7597912  0.6378704  0.2565977    0.00000       Uiso       1.00
      C588          C  0.2597912  0.1378704  0.7565978    0.00000       Uiso       1.00
      C589          C  0.5150688  0.0753323  0.4598663    0.00000       Uiso       1.00
      C590          C  0.0150688  0.5753323  0.9598664    0.00000       Uiso       1.00
      C591          C  0.9849312  0.9246677  0.9598664    0.00000       Uiso       1.00
      C592          C  0.4849312  0.4246677  0.4598663    0.00000       Uiso       1.00
      C593          C  0.4849312  0.5753323  0.0401337    0.00000       Uiso       1.00
      C594          C  0.9849312  0.0753323  0.5401337    0.00000       Uiso       1.00
      C595          C  0.0150688  0.4246677  0.5401337    0.00000       Uiso       1.00
      C596          C  0.5150688  0.9246677  0.0401337    0.00000       Uiso       1.00
      C597          C  0.4598663  0.5150688  0.0753323    0.00000       Uiso       1.00
      C598          C  0.9598664  0.0150688  0.5753323    0.00000       Uiso       1.00
      C599          C  0.9598664  0.9849312  0.9246677    0.00000       Uiso       1.00
      C600          C  0.4598663  0.4849312  0.4246677    0.00000       Uiso       1.00
      C601          C  0.0401337  0.4849312  0.5753323    0.00000       Uiso       1.00
      C602          C  0.5401337  0.9849312  0.0753323    0.00000       Uiso       1.00
      C603          C  0.5401337  0.0150688  0.4246677    0.00000       Uiso       1.00
      C604          C  0.0401337  0.5150688  0.9246677    0.00000       Uiso       1.00
      C605          C  0.0753323  0.4598663  0.5150688    0.00000       Uiso       1.00
      C606          C  0.5753323  0.9598664  0.0150688    0.00000       Uiso       1.00
      C607          C  0.9246677  0.9598664  0.9849312    0.00000       Uiso       1.00
      C608          C  0.4246677  0.4598663  0.4849312    0.00000       Uiso       1.00
      C609          C  0.5753323  0.0401337  0.4849312    0.00000       Uiso       1.00
      C610          C  0.0753323  0.5401337  0.9849312    0.00000       Uiso       1.00
      C611          C  0.4246677  0.5401337  0.0150688    0.00000       Uiso       1.00
      C612          C  0.9246677  0.0401337  0.5150688    0.00000       Uiso       1.00
      C613          C  0.3253323  0.7650688  0.7098663    0.00000       Uiso       1.00
      C614          C  0.8253323  0.2650688  0.2098663    0.00000       Uiso       1.00
      C615          C  0.1746677  0.2349312  0.2098663    0.00000       Uiso       1.00
      C616          C  0.6746677  0.7349312  0.7098663    0.00000       Uiso       1.00
      C617          C  0.8253323  0.7349312  0.2901337    0.00000       Uiso       1.00
      C618          C  0.3253323  0.2349312  0.7901337    0.00000       Uiso       1.00
      C619          C  0.6746677  0.2650688  0.7901337    0.00000       Uiso       1.00
      C620          C  0.1746677  0.7650688  0.2901337    0.00000       Uiso       1.00
      C621          C  0.7650688  0.7098663  0.3253323    0.00000       Uiso       1.00
      C622          C  0.2650688  0.2098663  0.8253323    0.00000       Uiso       1.00
      C623          C  0.2349312  0.2098663  0.1746677    0.00000       Uiso       1.00
      C624          C  0.7349312  0.7098663  0.6746677    0.00000       Uiso       1.00
      C625          C  0.7349312  0.2901337  0.8253323    0.00000       Uiso       1.00
      C626          C  0.2349312  0.7901337  0.3253323    0.00000       Uiso       1.00
      C627          C  0.2650688  0.7901337  0.6746677    0.00000       Uiso       1.00
      C628          C  0.7650688  0.2901337  0.1746677    0.00000       Uiso       1.00
      C629          C  0.7098663  0.3253323  0.7650688    0.00000       Uiso       1.00
      C630          C  0.2098663  0.8253323  0.2650688    0.00000       Uiso       1.00
      C631          C  0.2098663  0.1746677  0.2349312    0.00000       Uiso       1.00
      C632          C  0.7098663  0.6746677  0.7349312    0.00000       Uiso       1.00
      C633          C  0.2901337  0.8253323  0.7349312    0.00000       Uiso       1.00
      C634          C  0.7901337  0.3253323  0.2349312    0.00000       Uiso       1.00
      C635          C  0.7901337  0.6746677  0.2650688    0.00000       Uiso       1.00
      C636          C  0.2901337  0.1746677  0.7650688    0.00000       Uiso       1.00
      C637          C  0.5228596  0.0891504  0.4818882    0.00000       Uiso       1.00
      C638          C  0.0228596  0.5891504  0.9818882    0.00000       Uiso       1.00
      C639          C  0.9771405  0.9108496  0.9818882    0.00000       Uiso       1.00
      C640          C  0.4771405  0.4108496  0.4818882    0.00000       Uiso       1.00
      C641          C  0.4771405  0.5891504  0.0181118    0.00000       Uiso       1.00
      C642          C  0.9771405  0.0891504  0.5181118    0.00000       Uiso       1.00
      C643          C  0.0228596  0.4108496  0.5181118    0.00000       Uiso       1.00
      C644          C  0.5228596  0.9108496  0.0181118    0.00000       Uiso       1.00
      C645          C  0.4818882  0.5228596  0.0891504    0.00000       Uiso       1.00
      C646          C  0.9818882  0.0228596  0.5891504    0.00000       Uiso       1.00
      C647          C  0.9818882  0.9771405  0.9108496    0.00000       Uiso       1.00
      C648          C  0.4818882  0.4771405  0.4108496    0.00000       Uiso       1.00
      C649          C  0.0181118  0.4771405  0.5891504    0.00000       Uiso       1.00
      C650          C  0.5181118  0.9771405  0.0891504    0.00000       Uiso       1.00
      C651          C  0.5181118  0.0228596  0.4108496    0.00000       Uiso       1.00
      C652          C  0.0181118  0.5228596  0.9108496    0.00000       Uiso       1.00
      C653          C  0.0891504  0.4818882  0.5228596    0.00000       Uiso       1.00
      C654          C  0.5891504  0.9818882  0.0228596    0.00000       Uiso       1.00
      C655          C  0.9108496  0.9818882  0.9771405    0.00000       Uiso       1.00
      C656          C  0.4108496  0.4818882  0.4771405    0.00000       Uiso       1.00
      C657          C  0.5891504  0.0181118  0.4771405    0.00000       Uiso       1.00
      C658          C  0.0891504  0.5181118  0.9771405    0.00000       Uiso       1.00
      C659          C  0.4108496  0.5181118  0.0228596    0.00000       Uiso       1.00
      C660          C  0.9108496  0.0181118  0.5228596    0.00000       Uiso       1.00
      C661          C  0.3391504  0.7728596  0.7318882    0.00000       Uiso       1.00
      C662          C  0.8391504  0.2728596  0.2318882    0.00000       Uiso       1.00
      C663          C  0.1608496  0.2271404  0.2318882    0.00000       Uiso       1.00
      C664          C  0.6608496  0.7271405  0.7318882    0.00000       Uiso       1.00
      C665          C  0.8391504  0.7271405  0.2681118    0.00000       Uiso       1.00
      C666          C  0.3391504  0.2271404  0.7681119    0.00000       Uiso       1.00
      C667          C  0.6608496  0.2728596  0.7681119    0.00000       Uiso       1.00
      C668          C  0.1608496  0.7728596  0.2681118    0.00000       Uiso       1.00
      C669          C  0.7728596  0.7318882  0.3391504    0.00000       Uiso       1.00
      C670          C  0.2728596  0.2318882  0.8391504    0.00000       Uiso       1.00
      C671          C  0.2271404  0.2318882  0.1608496    0.00000       Uiso       1.00
      C672          C  0.7271405  0.7318882  0.6608496    0.00000       Uiso       1.00
      C673          C  0.7271405  0.2681118  0.8391504    0.00000       Uiso       1.00
      C674          C  0.2271404  0.7681119  0.3391504    0.00000       Uiso       1.00
      C675          C  0.2728596  0.7681119  0.6608496    0.00000       Uiso       1.00
      C676          C  0.7728596  0.2681118  0.1608496    0.00000       Uiso       1.00
      C677          C  0.7318882  0.3391504  0.7728596    0.00000       Uiso       1.00
      C678          C  0.2318882  0.8391504  0.2728596    0.00000       Uiso       1.00
      C679          C  0.2318882  0.1608496  0.2271404    0.00000       Uiso       1.00
      C680          C  0.7318882  0.6608496  0.7271405    0.00000       Uiso       1.00
      C681          C  0.2681118  0.8391504  0.7271405    0.00000       Uiso       1.00
      C682          C  0.7681119  0.3391504  0.2271404    0.00000       Uiso       1.00
      C683          C  0.7681119  0.6608496  0.2728596    0.00000       Uiso       1.00
      C684          C  0.2681118  0.1608496  0.7728596    0.00000       Uiso       1.00
       O49          O  0.5022784  0.1498566  0.5245106    0.00000       Uiso       1.00
       O50          O  0.0022784  0.6498566  0.0245106    0.00000       Uiso       1.00
       O51          O  0.9977216  0.8501434  0.0245106    0.00000       Uiso       1.00
       O52          O  0.4977216  0.3501434  0.5245106    0.00000       Uiso       1.00
       O53          O  0.4977216  0.6498566  0.9754895    0.00000       Uiso       1.00
       O54          O  0.9977216  0.1498566  0.4754894    0.00000       Uiso       1.00
       O55          O  0.0022784  0.3501434  0.4754894    0.00000       Uiso       1.00
       O56          O  0.5022784  0.8501434  0.9754895    0.00000       Uiso       1.00
       O57          O  0.5245106  0.5022784  0.1498566    0.00000       Uiso       1.00
       O58          O  0.0245106  0.0022784  0.6498566    0.00000       Uiso       1.00
       O59          O  0.0245106  0.9977216  0.8501434    0.00000       Uiso       1.00
       O60          O  0.5245106  0.4977216  0.3501434    0.00000       Uiso       1.00
       O61          O  0.9754895  0.4977216  0.6498566    0.00000       Uiso       1.00
       O62          O  0.4754894  0.9977216  0.1498566    0.00000       Uiso       1.00
       O63          O  0.4754894  0.0022784  0.3501434    0.00000       Uiso       1.00
       O64          O  0.9754895  0.5022784  0.8501434    0.00000       Uiso       1.00
       O65          O  0.1498566  0.5245106  0.5022784    0.00000       Uiso       1.00
       O66          O  0.6498566  0.0245106  0.0022784    0.00000       Uiso       1.00
       O67          O  0.8501434  0.0245106  0.9977216    0.00000       Uiso       1.00
       O68          O  0.3501434  0.5245106  0.4977216    0.00000       Uiso       1.00
       O69          O  0.6498566  0.9754895  0.4977216    0.00000       Uiso       1.00
       O70          O  0.1498566  0.4754894  0.9977216    0.00000       Uiso       1.00
       O71          O  0.3501434  0.4754894  0.0022784    0.00000       Uiso       1.00
       O72          O  0.8501434  0.9754895  0.5022784    0.00000       Uiso       1.00
       O73          O  0.3998566  0.7522784  0.7745106    0.00000       Uiso       1.00
       O74          O  0.8998566  0.2522784  0.2745106    0.00000       Uiso       1.00
       O75          O  0.1001434  0.2477216  0.2745106    0.00000       Uiso       1.00
       O76          O  0.6001434  0.7477216  0.7745106    0.00000       Uiso       1.00
       O77          O  0.8998566  0.7477216  0.2254895    0.00000       Uiso       1.00
       O78          O  0.3998566  0.2477216  0.7254895    0.00000       Uiso       1.00
       O79          O  0.6001434  0.2522784  0.7254895    0.00000       Uiso       1.00
       O80          O  0.1001434  0.7522784  0.2254895    0.00000       Uiso       1.00
       O81          O  0.7522784  0.7745106  0.3998566    0.00000       Uiso       1.00
       O82          O  0.2522784  0.2745106  0.8998566    0.00000       Uiso       1.00
       O83          O  0.2477216  0.2745106  0.1001434    0.00000       Uiso       1.00
       O84          O  0.7477216  0.7745106  0.6001434    0.00000       Uiso       1.00
       O85          O  0.7477216  0.2254895  0.8998566    0.00000       Uiso       1.00
       O86          O  0.2477216  0.7254895  0.3998566    0.00000       Uiso       1.00
       O87          O  0.2522784  0.7254895  0.6001434    0.00000       Uiso       1.00
       O88          O  0.7522784  0.2254895  0.1001434    0.00000       Uiso       1.00
       O89          O  0.7745106  0.3998566  0.7522784    0.00000       Uiso       1.00
       O90          O  0.2745106  0.8998566  0.2522784    0.00000       Uiso       1.00
       O91          O  0.2745106  0.1001434  0.2477216    0.00000       Uiso       1.00
       O92          O  0.7745106  0.6001434  0.7477216    0.00000       Uiso       1.00
       O93          O  0.2254895  0.8998566  0.7477216    0.00000       Uiso       1.00
       O94          O  0.7254895  0.3998566  0.2477216    0.00000       Uiso       1.00
       O95          O  0.7254895  0.6001434  0.2522784    0.00000       Uiso       1.00
       O96          O  0.2254895  0.1001434  0.7522784    0.00000       Uiso       1.00
        B1          B  0.4526669  0.0199755  0.3424605    0.00000       Uiso       1.00
        B2          B  0.9526669  0.5199755  0.8424605    0.00000       Uiso       1.00
        B3          B  0.0473331  0.9800245  0.8424605    0.00000       Uiso       1.00
        B4          B  0.5473331  0.4800245  0.3424605    0.00000       Uiso       1.00
        B5          B  0.5473331  0.5199755  0.1575395    0.00000       Uiso       1.00
        B6          B  0.0473331  0.0199755  0.6575395    0.00000       Uiso       1.00
        B7          B  0.9526669  0.4800245  0.6575395    0.00000       Uiso       1.00
        B8          B  0.4526669  0.9800245  0.1575395    0.00000       Uiso       1.00
        B9          B  0.3424605  0.4526669  0.0199755    0.00000       Uiso       1.00
       B10          B  0.8424605  0.9526669  0.5199755    0.00000       Uiso       1.00
       B11          B  0.8424605  0.0473331  0.9800245    0.00000       Uiso       1.00
       B12          B  0.3424605  0.5473331  0.4800245    0.00000       Uiso       1.00
       B13          B  0.1575395  0.5473331  0.5199755    0.00000       Uiso       1.00
       B14          B  0.6575395  0.0473331  0.0199755    0.00000       Uiso       1.00
       B15          B  0.6575395  0.9526669  0.4800245    0.00000       Uiso       1.00
       B16          B  0.1575395  0.4526669  0.9800245    0.00000       Uiso       1.00
       B17          B  0.0199755  0.3424605  0.4526669    0.00000       Uiso       1.00
       B18          B  0.5199755  0.8424605  0.9526669    0.00000       Uiso       1.00
       B19          B  0.9800245  0.8424605  0.0473331    0.00000       Uiso       1.00
       B20          B  0.4800245  0.3424605  0.5473331    0.00000       Uiso       1.00
       B21          B  0.5199755  0.1575395  0.5473331    0.00000       Uiso       1.00
       B22          B  0.0199755  0.6575395  0.0473331    0.00000       Uiso       1.00
       B23          B  0.4800245  0.6575395  0.9526669    0.00000       Uiso       1.00
       B24          B  0.9800245  0.1575395  0.4526669    0.00000       Uiso       1.00
       B25          B  0.2699755  0.7026669  0.5924605    0.00000       Uiso       1.00
       B26          B  0.7699755  0.2026669  0.0924605    0.00000       Uiso       1.00
       B27          B  0.2300245  0.2973331  0.0924605    0.00000       Uiso       1.00
       B28          B  0.7300245  0.7973331  0.5924605    0.00000       Uiso       1.00
       B29          B  0.7699755  0.7973331  0.4075395    0.00000       Uiso       1.00
       B30          B  0.2699755  0.2973331  0.9075396    0.00000       Uiso       1.00
       B31          B  0.7300245  0.2026669  0.9075396    0.00000       Uiso       1.00
       B32          B  0.2300245  0.7026669  0.4075395    0.00000       Uiso       1.00
       B33          B  0.7026669  0.5924605  0.2699755    0.00000       Uiso       1.00
       B34          B  0.2026669  0.0924605  0.7699755    0.00000       Uiso       1.00
       B35          B  0.2973331  0.0924605  0.2300245    0.00000       Uiso       1.00
       B36          B  0.7973331  0.5924605  0.7300245    0.00000       Uiso       1.00
       B37          B  0.7973331  0.4075395  0.7699755    0.00000       Uiso       1.00
       B38          B  0.2973331  0.9075396  0.2699755    0.00000       Uiso       1.00
       B39          B  0.2026669  0.9075396  0.7300245    0.00000       Uiso       1.00
       B40          B  0.7026669  0.4075395  0.2300245    0.00000       Uiso       1.00
       B41          B  0.5924605  0.2699755  0.7026669    0.00000       Uiso       1.00
       B42          B  0.0924605  0.7699755  0.2026669    0.00000       Uiso       1.00
       B43          B  0.0924605  0.2300245  0.2973331    0.00000       Uiso       1.00
       B44          B  0.5924605  0.7300245  0.7973331    0.00000       Uiso       1.00
       B45          B  0.4075395  0.7699755  0.7973331    0.00000       Uiso       1.00
       B46          B  0.9075396  0.2699755  0.2973331    0.00000       Uiso       1.00
       B47          B  0.9075396  0.7300245  0.2026669    0.00000       Uiso       1.00
       B48          B  0.4075395  0.2300245  0.7026669    0.00000       Uiso       1.00
      H193          H  0.4681361  0.0724329  0.4062229    0.00000       Uiso       1.00
      H194          H  0.9681361  0.5724329  0.9062230    0.00000       Uiso       1.00
      H195          H  0.0318639  0.9275671  0.9062230    0.00000       Uiso       1.00
      H196          H  0.5318640  0.4275671  0.4062229    0.00000       Uiso       1.00
      H197          H  0.5318640  0.5724329  0.0937771    0.00000       Uiso       1.00
      H198          H  0.0318639  0.0724329  0.5937771    0.00000       Uiso       1.00
      H199          H  0.9681361  0.4275671  0.5937771    0.00000       Uiso       1.00
      H200          H  0.4681361  0.9275671  0.0937771    0.00000       Uiso       1.00
      H201          H  0.4062229  0.4681361  0.0724329    0.00000       Uiso       1.00
      H202          H  0.9062230  0.9681361  0.5724329    0.00000       Uiso       1.00
      H203          H  0.9062230  0.0318639  0.9275671    0.00000       Uiso       1.00
      H204          H  0.4062229  0.5318640  0.4275671    0.00000       Uiso       1.00
      H205          H  0.0937771  0.5318640  0.5724329    0.00000       Uiso       1.00
      H206          H  0.5937771  0.0318639  0.0724329    0.00000       Uiso       1.00
      H207          H  0.5937771  0.9681361  0.4275671    0.00000       Uiso       1.00
      H208          H  0.0937771  0.4681361  0.9275671    0.00000       Uiso       1.00
      H209          H  0.0724329  0.4062229  0.4681361    0.00000       Uiso       1.00
      H210          H  0.5724329  0.9062230  0.9681361    0.00000       Uiso       1.00
      H211          H  0.9275671  0.9062230  0.0318639    0.00000       Uiso       1.00
      H212          H  0.4275671  0.4062229  0.5318640    0.00000       Uiso       1.00
      H213          H  0.5724329  0.0937771  0.5318640    0.00000       Uiso       1.00
      H214          H  0.0724329  0.5937771  0.0318639    0.00000       Uiso       1.00
      H215          H  0.4275671  0.5937771  0.9681361    0.00000       Uiso       1.00
      H216          H  0.9275671  0.0937771  0.4681361    0.00000       Uiso       1.00
      H217          H  0.3224329  0.7181361  0.6562229    0.00000       Uiso       1.00
      H218          H  0.8224329  0.2181361  0.1562230    0.00000       Uiso       1.00
      H219          H  0.1775671  0.2818639  0.1562230    0.00000       Uiso       1.00
      H220          H  0.6775671  0.7818639  0.6562229    0.00000       Uiso       1.00
      H221          H  0.8224329  0.7818639  0.3437771    0.00000       Uiso       1.00
      H222          H  0.3224329  0.2818639  0.8437771    0.00000       Uiso       1.00
      H223          H  0.6775671  0.2181361  0.8437771    0.00000       Uiso       1.00
      H224          H  0.1775671  0.7181361  0.3437771    0.00000       Uiso       1.00
      H225          H  0.7181361  0.6562229  0.3224329    0.00000       Uiso       1.00
      H226          H  0.2181361  0.1562230  0.8224329    0.00000       Uiso       1.00
      H227          H  0.2818639  0.1562230  0.1775671    0.00000       Uiso       1.00
      H228          H  0.7818639  0.6562229  0.6775671    0.00000       Uiso       1.00
      H229          H  0.7818639  0.3437771  0.8224329    0.00000       Uiso       1.00
      H230          H  0.2818639  0.8437771  0.3224329    0.00000       Uiso       1.00
      H231          H  0.2181361  0.8437771  0.6775671    0.00000       Uiso       1.00
      H232          H  0.7181361  0.3437771  0.1775671    0.00000       Uiso       1.00
      H233          H  0.6562229  0.3224329  0.7181361    0.00000       Uiso       1.00
      H234          H  0.1562230  0.8224329  0.2181361    0.00000       Uiso       1.00
      H235          H  0.1562230  0.1775671  0.2818639    0.00000       Uiso       1.00
      H236          H  0.6562229  0.6775671  0.7818639    0.00000       Uiso       1.00
      H237          H  0.3437771  0.8224329  0.7818639    0.00000       Uiso       1.00
      H238          H  0.8437771  0.3224329  0.2818639    0.00000       Uiso       1.00
      H239          H  0.8437771  0.6775671  0.2181361    0.00000       Uiso       1.00
      H240          H  0.3437771  0.1775671  0.7181361    0.00000       Uiso       1.00
      H241          H  0.4890065  0.1179302  0.4799285    0.00000       Uiso       1.00
      H242          H  0.9890065  0.6179303  0.9799286    0.00000       Uiso       1.00
      H243          H  0.0109935  0.8820698  0.9799286    0.00000       Uiso       1.00
      H244          H  0.5109935  0.3820698  0.4799285    0.00000       Uiso       1.00
      H245          H  0.5109935  0.6179303  0.0200715    0.00000       Uiso       1.00
      H246          H  0.0109935  0.1179302  0.5200715    0.00000       Uiso       1.00
      H247          H  0.9890065  0.3820698  0.5200715    0.00000       Uiso       1.00
      H248          H  0.4890065  0.8820698  0.0200715    0.00000       Uiso       1.00
      H249          H  0.4799285  0.4890065  0.1179302    0.00000       Uiso       1.00
      H250          H  0.9799286  0.9890065  0.6179303    0.00000       Uiso       1.00
      H251          H  0.9799286  0.0109935  0.8820698    0.00000       Uiso       1.00
      H252          H  0.4799285  0.5109935  0.3820698    0.00000       Uiso       1.00
      H253          H  0.0200715  0.5109935  0.6179303    0.00000       Uiso       1.00
      H254          H  0.5200715  0.0109935  0.1179302    0.00000       Uiso       1.00
      H255          H  0.5200715  0.9890065  0.3820698    0.00000       Uiso       1.00
      H256          H  0.0200715  0.4890065  0.8820698    0.00000       Uiso       1.00
      H257          H  0.1179302  0.4799285  0.4890065    0.00000       Uiso       1.00
      H258          H  0.6179303  0.9799286  0.9890065    0.00000       Uiso       1.00
      H259          H  0.8820698  0.9799286  0.0109935    0.00000       Uiso       1.00
      H260          H  0.3820698  0.4799285  0.5109935    0.00000       Uiso       1.00
      H261          H  0.6179303  0.0200715  0.5109935    0.00000       Uiso       1.00
      H262          H  0.1179302  0.5200715  0.0109935    0.00000       Uiso       1.00
      H263          H  0.3820698  0.5200715  0.9890065    0.00000       Uiso       1.00
      H264          H  0.8820698  0.0200715  0.4890065    0.00000       Uiso       1.00
      H265          H  0.3679303  0.7390065  0.7299286    0.00000       Uiso       1.00
      H266          H  0.8679303  0.2390065  0.2299285    0.00000       Uiso       1.00
      H267          H  0.1320698  0.2609935  0.2299285    0.00000       Uiso       1.00
      H268          H  0.6320698  0.7609935  0.7299286    0.00000       Uiso       1.00
      H269          H  0.8679303  0.7609935  0.2700715    0.00000       Uiso       1.00
      H270          H  0.3679303  0.2609935  0.7700715    0.00000       Uiso       1.00
      H271          H  0.6320698  0.2390065  0.7700715    0.00000       Uiso       1.00
      H272          H  0.1320698  0.7390065  0.2700715    0.00000       Uiso       1.00
      H273          H  0.7390065  0.7299286  0.3679303    0.00000       Uiso       1.00
      H274          H  0.2390065  0.2299285  0.8679303    0.00000       Uiso       1.00
      H275          H  0.2609935  0.2299285  0.1320698    0.00000       Uiso       1.00
      H276          H  0.7609935  0.7299286  0.6320698    0.00000       Uiso       1.00
      H277          H  0.7609935  0.2700715  0.8679303    0.00000       Uiso       1.00
      H278          H  0.2609935  0.7700715  0.3679303    0.00000       Uiso       1.00
      H279          H  0.2390065  0.7700715  0.6320698    0.00000       Uiso       1.00
      H280          H  0.7390065  0.2700715  0.1320698    0.00000       Uiso       1.00
      H281          H  0.7299286  0.3679303  0.7390065    0.00000       Uiso       1.00
      H282          H  0.2299285  0.8679303  0.2390065    0.00000       Uiso       1.00
      H283          H  0.2299285  0.1320698  0.2609935    0.00000       Uiso       1.00
      H284          H  0.7299286  0.6320698  0.7609935    0.00000       Uiso       1.00
      H285          H  0.2700715  0.8679303  0.7609935    0.00000       Uiso       1.00
      H286          H  0.7700715  0.3679303  0.2609935    0.00000       Uiso       1.00
      H287          H  0.7700715  0.6320698  0.2390065    0.00000       Uiso       1.00
      H288          H  0.2700715  0.1320698  0.7390065    0.00000       Uiso       1.00
       Ni1         Ni  0.4564043  0.4564043  0.4564043    0.00000       Uiso       1.00
       Ni2         Ni  0.9564042  0.9564042  0.9564042    0.00000       Uiso       1.00
       Ni3         Ni  0.0435958  0.5435958  0.9564042    0.00000       Uiso       1.00
       Ni4         Ni  0.5435958  0.0435958  0.4564043    0.00000       Uiso       1.00
       Ni5         Ni  0.5435958  0.9564042  0.0435958    0.00000       Uiso       1.00
       Ni6         Ni  0.0435958  0.4564043  0.5435958    0.00000       Uiso       1.00
       Ni7         Ni  0.9564042  0.0435958  0.5435958    0.00000       Uiso       1.00
       Ni8         Ni  0.4564043  0.5435958  0.0435958    0.00000       Uiso       1.00
       Ni9         Ni  0.7064043  0.7064043  0.7064043    0.00000       Uiso       1.00
      Ni10         Ni  0.2064043  0.2064043  0.2064043    0.00000       Uiso       1.00
      Ni11         Ni  0.7935959  0.2935958  0.2064043    0.00000       Uiso       1.00
      Ni12         Ni  0.2935958  0.7935959  0.7064043    0.00000       Uiso       1.00
      Ni13         Ni  0.2064043  0.7935959  0.2935958    0.00000       Uiso       1.00
      Ni14         Ni  0.7064043  0.2935958  0.7935959    0.00000       Uiso       1.00
      Ni15         Ni  0.2935958  0.2064043  0.7935959    0.00000       Uiso       1.00
      Ni16         Ni  0.7935959  0.7064043  0.2935958    0.00000       Uiso       1.00
