data_NN-TAPH-COF
_audit_creation_date              0000-00-00
_audit_creation_method            'LanYouShi'
_symmetry_space_group_name_H-M    'P1'
_cell_length_a                    25.8040009
_cell_length_b                    6.7470002
_cell_length_c                    26.2324009
_cell_angle_alpha                 90.0000000
_cell_angle_beta                  101.7366028
_cell_angle_gamma                 90.0000000
loop_
_atom_site_label
_atom_site_type_symbol
_atom_site_fract_x
_atom_site_fract_y
_atom_site_fract_z
_atom_site_U_iso_or_equiv
_atom_site_adp_type
_atom_site_occupancy
        C1          C  0.0915704  0.4680914  0.0787514    0.00000       Uiso       1.00
        C2          C  0.5775509  0.3568999  0.5486952    0.00000       Uiso       1.00
        C3          C  0.0170065  0.5422493  0.9885972    0.00000       Uiso       1.00
        C4          C  0.5326206  0.7260288  0.5172700    0.00000       Uiso       1.00
        C5          C  0.5857132  0.6862153  0.5144669    0.00000       Uiso       1.00
        C6          C  0.0022663  0.5622960  0.0375700    0.00000       Uiso       1.00
        C7          C  0.5243568  0.3975576  0.5513873    0.00000       Uiso       1.00
        C8          C  0.1063965  0.4460980  0.0297405    0.00000       Uiso       1.00
        C9          C  0.4471244  0.6269952  0.5376076    0.00000       Uiso       1.00
       C10          C  0.0764049  0.4383191  0.9319799    0.00000       Uiso       1.00
       C11          C  0.6626979  0.4559746  0.5280725    0.00000       Uiso       1.00
       C12          C  0.0300937  0.5693124  0.1348314    0.00000       Uiso       1.00
       C13          C  0.6093747  0.5005136  0.5299482    0.00000       Uiso       1.00
       C14          C  0.0405584  0.5301965  0.0844533    0.00000       Uiso       1.00
       C15          C  0.5006379  0.5830807  0.5359455    0.00000       Uiso       1.00
       C16          C  0.0679493  0.4787881  0.9828988    0.00000       Uiso       1.00
        N1          N  0.6988997  0.5798535  0.5138872    0.00000       Uiso       1.00
        N2          N  0.0504132  0.4640913  0.1789253    0.00000       Uiso       1.00
        N3          N  0.4128248  0.4967873  0.5527615    0.00000       Uiso       1.00
        N4          N  0.0643378  0.5645927  0.8905009    0.00000       Uiso       1.00
        N5          N  0.1087269  0.5179670  0.4818495    0.00000       Uiso       1.00
        N6          N  0.0029970  0.5254550  0.5866741    0.00000       Uiso       1.00
       C17          C  0.0952576  0.5147043  0.4287673    0.00000       Uiso       1.00
       C18          C  0.9495900  0.5300400  0.5692321    0.00000       Uiso       1.00
       C19          C  0.0164968  0.5302714  0.6397368    0.00000       Uiso       1.00
       C20          C  0.1621395  0.5197273  0.4993216    0.00000       Uiso       1.00
       C21          C  0.1429013  0.5153890  0.4114897    0.00000       Uiso       1.00
       C22          C  0.9282149  0.5396111  0.6140818    0.00000       Uiso       1.00
       C23          C  0.9689646  0.5381995  0.6571140    0.00000       Uiso       1.00
       C24          C  0.1835985  0.5171189  0.4544799    0.00000       Uiso       1.00
        H1          H  0.1477495  0.5143349  0.3737973    0.00000       Uiso       1.00
        H2          H  0.8890429  0.5466668  0.6156626    0.00000       Uiso       1.00
        H3          H  0.9644165  0.5429506  0.6949051    0.00000       Uiso       1.00
        H4          H  0.2227831  0.5160842  0.4527962    0.00000       Uiso       1.00
        N7          N  0.9924194  0.5212329  0.4668540    0.00000       Uiso       1.00
        N8          N  0.1193447  0.5225990  0.6016564    0.00000       Uiso       1.00
       C25          C  0.9974635  0.5131536  0.4161133    0.00000       Uiso       1.00
       C26          C  0.9408816  0.5200567  0.4716696    0.00000       Uiso       1.00
       C27          C  0.1143283  0.5250725  0.6524166    0.00000       Uiso       1.00
       C28          C  0.1708793  0.5228181  0.5969031    0.00000       Uiso       1.00
       C29          C  0.9460443  0.5057026  0.3867708    0.00000       Uiso       1.00
       C30          C  0.9114686  0.5101309  0.4207402    0.00000       Uiso       1.00
       C31          C  0.1657457  0.5261257  0.6818575    0.00000       Uiso       1.00
       C32          C  0.2003205  0.5248801  0.6478857    0.00000       Uiso       1.00
        H5          H  0.9353817  0.4977967  0.3471230    0.00000       Uiso       1.00
        H6          H  0.8711510  0.5059074  0.4098679    0.00000       Uiso       1.00
        H7          H  0.1764343  0.5282044  0.7215482    0.00000       Uiso       1.00
        H8          H  0.2406444  0.5256704  0.6588654    0.00000       Uiso       1.00
       C33          C  0.0443019  0.5107643  0.3952538    0.00000       Uiso       1.00
       C34          C  0.9189281  0.5264437  0.5173659    0.00000       Uiso       1.00
       C35          C  0.0674685  0.5285472  0.6731731    0.00000       Uiso       1.00
       C36          C  0.1927898  0.5220943  0.5511858    0.00000       Uiso       1.00
       C37          C  0.0413912  0.5014148  0.3399994    0.00000       Uiso       1.00
       C38          C  0.8627187  0.5309909  0.5119643    0.00000       Uiso       1.00
       C39          C  0.0705397  0.5338266  0.7284231    0.00000       Uiso       1.00
       C40          C  0.2489618  0.5224362  0.5564713    0.00000       Uiso       1.00
       C41          C  0.0527985  0.3227489  0.3159528    0.00000       Uiso       1.00
       C42          C  0.0302500  0.6699636  0.3071392    0.00000       Uiso       1.00
       C43          C  0.8341378  0.7098782  0.5003662    0.00000       Uiso       1.00
       C44          C  0.8340477  0.3604167  0.5213653    0.00000       Uiso       1.00
       C45          C  0.0751684  0.3589302  0.7592053    0.00000       Uiso       1.00
       C46          C  0.0662130  0.7151182  0.7547017    0.00000       Uiso       1.00
       C47          C  0.2765575  0.6981228  0.5491264    0.00000       Uiso       1.00
       C48          C  0.2786703  0.3450238  0.5656465    0.00000       Uiso       1.00
        H9          H  0.0603350  0.1962160  0.3377944    0.00000       Uiso       1.00
       H10          H  0.0214823  0.8023279  0.3225963    0.00000       Uiso       1.00
       H11          H  0.8533867  0.8357358  0.4927238    0.00000       Uiso       1.00
       H12          H  0.8531865  0.2274372  0.5292220    0.00000       Uiso       1.00
       H13          H  0.0788625  0.2245224  0.7421047    0.00000       Uiso       1.00
       H14          H  0.0635429  0.8458673  0.7344722    0.00000       Uiso       1.00
       H15          H  0.2565794  0.8299339  0.5432792    0.00000       Uiso       1.00
       H16          H  0.2602748  0.2157311  0.5719572    0.00000       Uiso       1.00
       C49          C  0.0552102  0.3150581  0.2624490    0.00000       Uiso       1.00
       C50          C  0.0319587  0.6610397  0.2533190    0.00000       Uiso       1.00
       C51          C  0.7793506  0.7192886  0.5003226    0.00000       Uiso       1.00
       C52          C  0.7793261  0.3708850  0.5215524    0.00000       Uiso       1.00
       C53          C  0.0740645  0.3649496  0.8131706    0.00000       Uiso       1.00
       C54          C  0.0644356  0.7199576  0.8083975    0.00000       Uiso       1.00
       C55          C  0.3311841  0.6942313  0.5483152    0.00000       Uiso       1.00
       C56          C  0.3333774  0.3421700  0.5652059    0.00000       Uiso       1.00
       H17          H  0.0643765  0.1831617  0.2469927    0.00000       Uiso       1.00
       H18          H  0.0240931  0.7863501  0.2312426    0.00000       Uiso       1.00
       H19          H  0.7599813  0.8514977  0.4923130    0.00000       Uiso       1.00
       H20          H  0.7602811  0.2452268  0.5292886    0.00000       Uiso       1.00
       H21          H  0.0773340  0.2352512  0.8336700    0.00000       Uiso       1.00
       H22          H  0.0604792  0.8538784  0.8255340    0.00000       Uiso       1.00
       H23          H  0.3492648  0.8237911  0.5422192    0.00000       Uiso       1.00
       H24          H  0.3535413  0.2111346  0.5716497    0.00000       Uiso       1.00
       C57          C  0.0453101  0.4837969  0.2298454    0.00000       Uiso       1.00
       C58          C  0.7509966  0.5518823  0.5120078    0.00000       Uiso       1.00
       C59          C  0.0679333  0.5457555  0.8390638    0.00000       Uiso       1.00
       C60          C  0.3605898  0.5153623  0.5553319    0.00000       Uiso       1.00
       H25          H  0.1197613  0.4426629  0.1115318    0.00000       Uiso       1.00
       H26          H  0.5926924  0.2203524  0.5611362    0.00000       Uiso       1.00
       H27          H  0.6067143  0.7952356  0.5002869    0.00000       Uiso       1.00
       H28          H  0.4329529  0.7640198  0.5246450    0.00000       Uiso       1.00
        O1          O  0.9498957  0.6095802  0.0328075    0.00000       Uiso       1.00
       H29          H  0.0918346  0.3024075  0.9262904    0.00000       Uiso       1.00
       C61          C  0.9127499  0.5560637  0.0607379    0.00000       Uiso       1.00
        O2          O  0.9257751  0.4377157  0.0980012    0.00000       Uiso       1.00
       H30          H  0.9887175  0.5698377  0.9560237    0.00000       Uiso       1.00
       H31          H  0.5172997  0.8621231  0.5050672    0.00000       Uiso       1.00
       H32          H  0.5027762  0.2902987  0.5653293    0.00000       Uiso       1.00
        O3          O  0.1592867  0.4031043  0.0366573    0.00000       Uiso       1.00
       H33          H  0.0043212  0.6818553  0.1377776    0.00000       Uiso       1.00
       C62          C  0.1972120  0.3872797  1.0072757    0.00000       Uiso       1.00
        O4          O  0.1854232  0.4073710  0.9589156    0.00000       Uiso       1.00
       C63          C  0.6373956  0.3517466  0.1931020    0.00000       Uiso       1.00
       C64          C  0.5830610  0.3964576  0.1805744    0.00000       Uiso       1.00
       C65          C  0.5623127  0.5108029  0.1364189    0.00000       Uiso       1.00
       C66          C  0.5957857  0.5781502  0.1036055    0.00000       Uiso       1.00
       C67          C  0.6504753  0.5324139  0.1149377    0.00000       Uiso       1.00
       C68          C  0.6704706  0.4191359  0.1601804    0.00000       Uiso       1.00
        N9          N  0.6816906  0.5987540  0.0827520    0.00000       Uiso       1.00
       N10          N  0.7327908  0.5699436  0.0905484    0.00000       Uiso       1.00
       C69          C  0.7517548  0.7442309  0.0153995    0.00000       Uiso       1.00
       C70          C  0.7672803  0.6298888  0.0610416    0.00000       Uiso       1.00
       C71          C  0.7890859  0.7985711  0.9855229    0.00000       Uiso       1.00
       C72          C  0.8422509  0.7382444  0.0009389    0.00000       Uiso       1.00
       C73          C  0.8594616  0.6224868  0.0465437    0.00000       Uiso       1.00
       C74          C  0.8209072  0.5721048  0.0762870    0.00000       Uiso       1.00
       H34          H  0.6525637  0.2696218  0.2255136    0.00000       Uiso       1.00
       H35          H  0.5584196  0.3457420  0.2037451    0.00000       Uiso       1.00
       H36          H  0.5227242  0.5446439  0.1283121    0.00000       Uiso       1.00
       H37          H  0.7775215  0.8818713  0.9524880    0.00000       Uiso       1.00
       H38          H  0.8685229  0.7793726  0.9782671    0.00000       Uiso       1.00
       H39          H  0.8316898  0.4893929  0.1095466    0.00000       Uiso       1.00
       C75          C  0.5180123  0.4289071  0.9239880    0.00000       Uiso       1.00
       C76          C  0.5667822  0.3461695  0.9495246    0.00000       Uiso       1.00
       C77          C  0.5698658  0.2383986  0.9959682    0.00000       Uiso       1.00
       C78          C  0.5244281  0.2164750  0.0170118    0.00000       Uiso       1.00
       C79          C  0.4756507  0.3028390  0.9933727    0.00000       Uiso       1.00
       C80          C  0.4727957  0.4072796  0.9460517    0.00000       Uiso       1.00
       N11          N  0.4342052  0.2858825  0.0175606    0.00000       Uiso       1.00
       N12          N  0.3846239  0.3320216  1.0000880    0.00000       Uiso       1.00
       C81          C  0.3586836  0.3049057  0.0834721    0.00000       Uiso       1.00
       C82          C  0.3463627  0.3264591  0.0287161    0.00000       Uiso       1.00
       C83          C  0.3184375  0.3054141  0.1123494    0.00000       Uiso       1.00
       C84          C  0.2653679  0.3297971  0.0868596    0.00000       Uiso       1.00
       C85          C  0.2510744  0.3553031  0.0320102    0.00000       Uiso       1.00
       C86          C  0.2927243  0.3514405  1.0037230    0.00000       Uiso       1.00
       H40          H  0.5158017  0.5049945  0.8895946    0.00000       Uiso       1.00
       H41          H  0.5997848  0.3630779  0.9337909    0.00000       Uiso       1.00
       H42          H  0.6050514  0.1756162  1.0139062    0.00000       Uiso       1.00
       H43          H  0.3278335  0.2891614  0.1519274    0.00000       Uiso       1.00
       H44          H  0.2370211  0.3299367  0.1090872    0.00000       Uiso       1.00
       H45          H  0.2842252  0.3687673  0.9639758    0.00000       Uiso       1.00
       H46          H  0.4375462  0.4686206  0.9275219    0.00000       Uiso       1.00
       H47          H  0.7130349  0.7876071  1.0040052    0.00000       Uiso       1.00
       H48          H  0.7097590  0.3851701  0.1692316    0.00000       Uiso       1.00
       H49          H  0.3974858  0.2906154  0.1024945    0.00000       Uiso       1.00
       H50          H  0.0799543  0.5179670  0.5080702    0.00000       Uiso       1.00
       H51          H  0.0320841  0.5254550  0.5607813    0.00000       Uiso       1.00
        H1          H  0.5797042  0.6616057  1.0718566    0.00000       Uiso       1.00
        H2          H  0.5296029  0.1387035  1.0509187    0.00000       Uiso       1.00
