data_NTU-COF-2
_audit_creation_date              0000-00-00
_audit_creation_method            'LanYouShi'
_symmetry_space_group_name_H-M    'P1'
_cell_length_a                    33.7014008
_cell_length_b                    33.7014008
_cell_length_c                    3.5803001
_cell_angle_alpha                 90.0000000
_cell_angle_beta                  90.0000000
_cell_angle_gamma                 120.0000000
loop_
_atom_site_label
_atom_site_type_symbol
_atom_site_fract_x
_atom_site_fract_y
_atom_site_fract_z
_atom_site_U_iso_or_equiv
_atom_site_adp_type
_atom_site_occupancy
        C1          C  0.2877206  0.6597440  0.4999978    0.00000       Uiso       1.00
        C2          C  0.3402546  0.6279752  0.4999978    0.00000       Uiso       1.00
        C3          C  0.3720234  0.7122780  0.4999978    0.00000       Uiso       1.00
        C4          C  0.2947467  0.6209699  0.4999978    0.00000       Uiso       1.00
        C5          C  0.3790287  0.6737754  0.4999978    0.00000       Uiso       1.00
        C6          C  0.3262232  0.7052519  0.4999978    0.00000       Uiso       1.00
        C7          C  0.2553101  0.5760137  0.4999978    0.00000       Uiso       1.00
        C8          C  0.4239849  0.6792951  0.4999978    0.00000       Uiso       1.00
        C9          C  0.3207036  0.7446885  0.4999978    0.00000       Uiso       1.00
       C10          C  0.2110909  0.5695627  0.4999978    0.00000       Uiso       1.00
       C11          C  0.4304360  0.6415269  0.4999978    0.00000       Uiso       1.00
       C12          C  0.3584718  0.7889077  0.4999978    0.00000       Uiso       1.00
       C13          C  0.2043826  0.6067948  0.4999978    0.00000       Uiso       1.00
       C14          C  0.3932038  0.5975863  0.4999978    0.00000       Uiso       1.00
       C15          C  0.4024123  0.7956160  0.4999978    0.00000       Uiso       1.00
       C16          C  0.2416758  0.6512854  0.4999978    0.00000       Uiso       1.00
       C17          C  0.3487132  0.5903890  0.4999978    0.00000       Uiso       1.00
       C18          C  0.4096096  0.7583228  0.4999978    0.00000       Uiso       1.00
        O1          O  0.1593354  0.5931724  0.4999978    0.00000       Uiso       1.00
        O2          O  0.4068262  0.5661616  0.4999978    0.00000       Uiso       1.00
        O3          O  0.4338370  0.8406632  0.4999978    0.00000       Uiso       1.00
        B1          B  0.1366673  0.5438371  0.4999978    0.00000       Uiso       1.00
        B2          B  0.4561616  0.5928289  0.4999978    0.00000       Uiso       1.00
        B3          B  0.4071698  0.8633313  0.4999978    0.00000       Uiso       1.00
        O4          O  0.1707125  0.5298676  0.4999978    0.00000       Uiso       1.00
        O5          O  0.4701310  0.6408435  0.4999978    0.00000       Uiso       1.00
        O6          O  0.3591551  0.8292860  0.4999978    0.00000       Uiso       1.00
        H1          H  0.2568546  0.5467102  0.4999978    0.00000       Uiso       1.00
        H2          H  0.4532884  0.7101430  0.4999978    0.00000       Uiso       1.00
        H3          H  0.2898556  0.7431440  0.4999978    0.00000       Uiso       1.00
        H4          H  0.2333452  0.6763486  0.4999978    0.00000       Uiso       1.00
        H5          H  0.3236500  0.5569952  0.4999978    0.00000       Uiso       1.00
        H6          H  0.4430034  0.7666534  0.4999978    0.00000       Uiso       1.00
        C1          C  0.8445713  0.4432078  0.4999978    0.00000       Uiso       1.00
        C2          C  0.5567908  0.4013635  0.4999978    0.00000       Uiso       1.00
        C3          C  0.5986351  0.1554273  0.4999978    0.00000       Uiso       1.00
        C4          C  0.7965599  0.4230354  0.4999978    0.00000       Uiso       1.00
        C5          C  0.5769632  0.3735246  0.4999978    0.00000       Uiso       1.00
        C6          C  0.6264740  0.2034387  0.4999978    0.00000       Uiso       1.00
        H1          H  0.8644172  0.4781411  0.4999978    0.00000       Uiso       1.00
        H2          H  0.5218575  0.3862761  0.4999978    0.00000       Uiso       1.00
        H3          H  0.6137225  0.1355814  0.4999978    0.00000       Uiso       1.00
        H4          H  0.7851995  0.4457611  0.4999978    0.00000       Uiso       1.00
        H5          H  0.5542374  0.3394383  0.4999978    0.00000       Uiso       1.00
        H6          H  0.6605603  0.2147991  0.4999978    0.00000       Uiso       1.00
        C7          C  0.6318426  0.4685350  0.4999978    0.00000       Uiso       1.00
        C8          C  0.5314636  0.1633077  0.4999978    0.00000       Uiso       1.00
        C9          C  0.8366910  0.3681560  0.4999978    0.00000       Uiso       1.00
       C10          C  0.6515906  0.4402890  0.4999978    0.00000       Uiso       1.00
       C11          C  0.5597097  0.2113016  0.4999978    0.00000       Uiso       1.00
       C12          C  0.7886970  0.3484080  0.4999978    0.00000       Uiso       1.00
        H7          H  0.6528653  0.5032057  0.4999978    0.00000       Uiso       1.00
        H8          H  0.4967929  0.1496596  0.4999978    0.00000       Uiso       1.00
        H9          H  0.8503390  0.3471333  0.4999978    0.00000       Uiso       1.00
       H10          H  0.6863056  0.4575312  0.4999978    0.00000       Uiso       1.00
       H11          H  0.5424675  0.2287745  0.4999978    0.00000       Uiso       1.00
       H12          H  0.7712241  0.3136930  0.4999978    0.00000       Uiso       1.00
       C13          C  0.6459166  0.3624786  0.4999978    0.00000       Uiso       1.00
       C14          C  0.6375201  0.2834381  0.4999978    0.00000       Uiso       1.00
       C15          C  0.7165605  0.3540819  0.4999978    0.00000       Uiso       1.00
       C16          C  0.5839437  0.4492896  0.4999978    0.00000       Uiso       1.00
       C17          C  0.5507090  0.1346541  0.4999978    0.00000       Uiso       1.00
       C18          C  0.8653445  0.4160549  0.4999978    0.00000       Uiso       1.00
       C19          C  0.6253760  0.3913441  0.4999978    0.00000       Uiso       1.00
       C20          C  0.6086546  0.2340319  0.4999978    0.00000       Uiso       1.00
       C21          C  0.7659667  0.3746226  0.4999978    0.00000       Uiso       1.00
       C22          C  0.6197733  0.3138297  0.4999978    0.00000       Uiso       1.00
       C23          C  0.6861689  0.3059436  0.4999978    0.00000       Uiso       1.00
       C24          C  0.6940551  0.3802253  0.4999978    0.00000       Uiso       1.00
       H13          H  0.7139394  0.4142856  0.4999978    0.00000       Uiso       1.00
       H14          H  0.5857130  0.2996538  0.4999978    0.00000       Uiso       1.00
       H15          H  0.7003448  0.2860592  0.4999978    0.00000       Uiso       1.00
        N1          N  0.5616265  0.4733549  0.4999978    0.00000       Uiso       1.00
       C25          C  0.5772582  0.5189446  0.4999978    0.00000       Uiso       1.00
       H16          H  0.6117921  0.5413046  0.4999978    0.00000       Uiso       1.00
       C26          C  0.5470688  0.5364987  0.4999978    0.00000       Uiso       1.00
       C27          C  0.5647559  0.5844437  0.4999978    0.00000       Uiso       1.00
       C28          C  0.5353649  0.6028584  0.4999978    0.00000       Uiso       1.00
       C29          C  0.4874361  0.5736606  0.4999978    0.00000       Uiso       1.00
       C30          C  0.4694211  0.5258443  0.4999978    0.00000       Uiso       1.00
       C31          C  0.4988726  0.5075476  0.4999978    0.00000       Uiso       1.00
       H17          H  0.5993776  0.6064419  0.4999978    0.00000       Uiso       1.00
       H18          H  0.5492857  0.6376454  0.4999978    0.00000       Uiso       1.00
       H19          H  0.4348130  0.5038669  0.4999978    0.00000       Uiso       1.00
       H20          H  0.4846736  0.4727017  0.4999978    0.00000       Uiso       1.00
        N2          N  0.5266437  0.0882716  0.4999978    0.00000       Uiso       1.00
       C32          C  0.4810540  0.0583135  0.4999978    0.00000       Uiso       1.00
       H21          H  0.4586940  0.0704875  0.4999978    0.00000       Uiso       1.00
       C33          C  0.4634999  0.0105700  0.4999978    0.00000       Uiso       1.00
       C34          C  0.4155549  0.9803108  0.4999978    0.00000       Uiso       1.00
       C35          C  0.3971402  0.9325052  0.4999978    0.00000       Uiso       1.00
       C36          C  0.4263380  0.9137741  0.4999978    0.00000       Uiso       1.00
       C37          C  0.4741543  0.9435754  0.4999978    0.00000       Uiso       1.00
       C38          C  0.4924510  0.9913236  0.4999978    0.00000       Uiso       1.00
       H22          H  0.3935567  0.9929343  0.4999978    0.00000       Uiso       1.00
       H23          H  0.3623532  0.9116389  0.4999978    0.00000       Uiso       1.00
       H24          H  0.4961317  0.9309446  0.4999978    0.00000       Uiso       1.00
       H25          H  0.5272969  0.0119718  0.4999978    0.00000       Uiso       1.00
        N3          N  0.9117270  0.4383721  0.4999978    0.00000       Uiso       1.00
       C39          C  0.9416851  0.4227405  0.4999978    0.00000       Uiso       1.00
       H26          H  0.9295111  0.3882065  0.4999978    0.00000       Uiso       1.00
       C40          C  0.9894286  0.4529298  0.4999978    0.00000       Uiso       1.00
       C41          C  0.0196878  0.4352427  0.4999978    0.00000       Uiso       1.00
       C42          C  0.0674935  0.4646337  0.4999978    0.00000       Uiso       1.00
       C43          C  0.0862245  0.5125625  0.4999978    0.00000       Uiso       1.00
       C44          C  0.0564232  0.5305775  0.4999978    0.00000       Uiso       1.00
       C45          C  0.0086750  0.5011261  0.4999978    0.00000       Uiso       1.00
       H27          H  0.0070643  0.4006210  0.4999978    0.00000       Uiso       1.00
       H28          H  0.0883597  0.4507129  0.4999978    0.00000       Uiso       1.00
       H29          H  0.0690540  0.5651857  0.4999978    0.00000       Uiso       1.00
       H30          H  0.9880267  0.5153251  0.4999978    0.00000       Uiso       1.00
