data_NUS-10
_audit_creation_date              0000-00-00
_audit_creation_method            'LanYouShi'
_symmetry_space_group_name_H-M    'P1'
_cell_length_a                    22.8959007
_cell_length_b                    22.8959007
_cell_length_c                    5.5700002
_cell_angle_alpha                 90.0000000
_cell_angle_beta                  90.0000000
_cell_angle_gamma                 120.0000000
loop_
_atom_site_label
_atom_site_type_symbol
_atom_site_fract_x
_atom_site_fract_y
_atom_site_fract_z
_atom_site_U_iso_or_equiv
_atom_site_adp_type
_atom_site_occupancy
        H1          H  0.3786677  0.4484883  0.3860111    0.00000       Uiso       1.00
        H2          H  0.5515121  0.9301795  0.3860111    0.00000       Uiso       1.00
        H3          H  0.0698209  0.6213327  0.3860111    0.00000       Uiso       1.00
        H4          H  0.6213327  0.5515120  0.3860111    0.00000       Uiso       1.00
        H5          H  0.4484883  0.0698209  0.3860111    0.00000       Uiso       1.00
        H6          H  0.9301795  0.3786677  0.3860111    0.00000       Uiso       1.00
        H7          H  0.6589212  0.4797642  0.4330735    0.00000       Uiso       1.00
        H8          H  0.5202363  0.1791573  0.4330735    0.00000       Uiso       1.00
        H9          H  0.8208431  0.3410791  0.4330735    0.00000       Uiso       1.00
       H10          H  0.3410791  0.5202363  0.4330735    0.00000       Uiso       1.00
       H11          H  0.4797642  0.8208431  0.4330735    0.00000       Uiso       1.00
       H12          H  0.1791573  0.6589212  0.4330735    0.00000       Uiso       1.00
        C1          C  0.5411250  0.5707437  0.3824574    0.00000       Uiso       1.00
        C2          C  0.4292567  0.9703816  0.3824574    0.00000       Uiso       1.00
        C3          C  0.0296189  0.4588754  0.3824574    0.00000       Uiso       1.00
        C4          C  0.4588754  0.4292567  0.3824574    0.00000       Uiso       1.00
        C5          C  0.5707437  0.0296189  0.3824574    0.00000       Uiso       1.00
        C6          C  0.9703814  0.5411250  0.3824574    0.00000       Uiso       1.00
        C7          C  0.5700662  0.5288939  0.3866168    0.00000       Uiso       1.00
        C8          C  0.4711064  0.0411724  0.3866168    0.00000       Uiso       1.00
        C9          C  0.9588280  0.4299342  0.3866168    0.00000       Uiso       1.00
       C10          C  0.4299342  0.4711064  0.3866168    0.00000       Uiso       1.00
       C11          C  0.5288939  0.9588280  0.3866168    0.00000       Uiso       1.00
       C12          C  0.0411724  0.5700662  0.3866168    0.00000       Uiso       1.00
       C13          C  0.5301413  0.4577424  0.3890465    0.00000       Uiso       1.00
       C14          C  0.5422580  0.0723991  0.3890465    0.00000       Uiso       1.00
       C15          C  0.9276013  0.4698591  0.3890465    0.00000       Uiso       1.00
       C16          C  0.4698591  0.5422580  0.3890465    0.00000       Uiso       1.00
       C17          C  0.4577424  0.9276012  0.3890465    0.00000       Uiso       1.00
       C18          C  0.0723991  0.5301413  0.3890465    0.00000       Uiso       1.00
       C19          C  0.6219137  0.4301814  0.4194765    0.00000       Uiso       1.00
       C20          C  0.5698190  0.1917325  0.4194765    0.00000       Uiso       1.00
       C21          C  0.8082679  0.3780867  0.4194765    0.00000       Uiso       1.00
       C22          C  0.3780867  0.5698190  0.4194765    0.00000       Uiso       1.00
       C23          C  0.4301814  0.8082678  0.4194765    0.00000       Uiso       1.00
       C24          C  0.1917325  0.6219137  0.4194765    0.00000       Uiso       1.00
        S1          S  0.5952980  0.6580477  0.3672187    0.00000       Uiso       1.00
        S2          S  0.3419527  0.9372504  0.3672187    0.00000       Uiso       1.00
        S3          S  0.0627500  0.4047024  0.3672187    0.00000       Uiso       1.00
        S4          S  0.4047024  0.3419527  0.3672187    0.00000       Uiso       1.00
        S5          S  0.6580477  0.0627500  0.3672187    0.00000       Uiso       1.00
        S6          S  0.9372504  0.5952980  0.3672187    0.00000       Uiso       1.00
        O1          O  0.4343422  0.3068881  0.1707103    0.00000       Uiso       1.00
        O2          O  0.6931123  0.1274543  0.1707103    0.00000       Uiso       1.00
        O3          O  0.8725460  0.5656582  0.1707103    0.00000       Uiso       1.00
        O4          O  0.5656582  0.6931123  0.1707103    0.00000       Uiso       1.00
        O5          O  0.3068881  0.8725461  0.1707103    0.00000       Uiso       1.00
        O6          O  0.1274544  0.4343423  0.1707103    0.00000       Uiso       1.00
        O7          O  0.3320154  0.3234203  0.2730633    0.00000       Uiso       1.00
        O8          O  0.6765801  0.0085954  0.2730633    0.00000       Uiso       1.00
        O9          O  0.9914050  0.6679850  0.2730633    0.00000       Uiso       1.00
       O10          O  0.6679850  0.6765802  0.2730633    0.00000       Uiso       1.00
       O11          O  0.3234203  0.9914050  0.2730633    0.00000       Uiso       1.00
       O12          O  0.0085954  0.3320154  0.2730633    0.00000       Uiso       1.00
       O13          O  0.3980434  0.3089494  0.6242378    0.00000       Uiso       1.00
       O14          O  0.6910511  0.0890943  0.6242378    0.00000       Uiso       1.00
       O15          O  0.9109061  0.6019570  0.6242378    0.00000       Uiso       1.00
       O16          O  0.6019570  0.6910511  0.6242378    0.00000       Uiso       1.00
       O17          O  0.3089494  0.9109061  0.6242378    0.00000       Uiso       1.00
       O18          O  0.0890943  0.3980434  0.6242378    0.00000       Uiso       1.00
       H13          H  0.4039586  0.2942370  0.0307416    0.00000       Uiso       1.00
       H14          H  0.7057635  0.1097219  0.0307416    0.00000       Uiso       1.00
       H15          H  0.8902785  0.5960417  0.0307416    0.00000       Uiso       1.00
       H16          H  0.5960417  0.7057635  0.0307416    0.00000       Uiso       1.00
       H17          H  0.2942370  0.8902785  0.0307416    0.00000       Uiso       1.00
       H18          H  0.1097219  0.4039586  0.0307416    0.00000       Uiso       1.00
        N2          N  0.5568291  0.4159884  0.3949385    0.00000       Uiso       1.00
         H          H  0.5236115  0.3677771  0.3779729    0.00000       Uiso       1.00
        N2          N  0.5840120  0.1408409  0.3949385    0.00000       Uiso       1.00
         H          H  0.6322233  0.1558346  0.3779729    0.00000       Uiso       1.00
        N2          N  0.8591595  0.4431713  0.3949385    0.00000       Uiso       1.00
         H          H  0.8441658  0.4763889  0.3779729    0.00000       Uiso       1.00
        N2          N  0.4431713  0.5840120  0.3949385    0.00000       Uiso       1.00
         H          H  0.4763889  0.6322233  0.3779729    0.00000       Uiso       1.00
        N2          N  0.4159884  0.8591594  0.3949385    0.00000       Uiso       1.00
         H          H  0.3677771  0.8441658  0.3779729    0.00000       Uiso       1.00
        N2          N  0.1408409  0.5568291  0.3949385    0.00000       Uiso       1.00
         H          H  0.1558346  0.5236115  0.3779729    0.00000       Uiso       1.00
       C43          C  0.5975447  0.3104269  0.4278731    0.00000       Uiso       1.00
       C44          C  0.6429520  0.3810827  0.4250469    0.00000       Uiso       1.00
       C43          C  0.6895735  0.2871180  0.4278731    0.00000       Uiso       1.00
       C44          C  0.6189178  0.2618696  0.4250469    0.00000       Uiso       1.00
       C43          C  0.7128824  0.4024557  0.4278731    0.00000       Uiso       1.00
       C44          C  0.7381308  0.3570484  0.4250469    0.00000       Uiso       1.00
       C43          C  0.4024557  0.6895735  0.4278731    0.00000       Uiso       1.00
       C44          C  0.3570484  0.6189178  0.4250469    0.00000       Uiso       1.00
       C43          C  0.3104269  0.7128824  0.4278731    0.00000       Uiso       1.00
       C44          C  0.3810826  0.7381308  0.4250469    0.00000       Uiso       1.00
       C43          C  0.2871180  0.5975447  0.4278731    0.00000       Uiso       1.00
       C44          C  0.2618696  0.6429520  0.4250469    0.00000       Uiso       1.00
       O13          O  0.5354527  0.2891096  0.4358204    0.00000       Uiso       1.00
       O13          O  0.7108908  0.2463434  0.4358204    0.00000       Uiso       1.00
       O13          O  0.7536570  0.4645476  0.4358204    0.00000       Uiso       1.00
       O13          O  0.4645477  0.7108908  0.4358204    0.00000       Uiso       1.00
       O13          O  0.2891096  0.7536570  0.4358204    0.00000       Uiso       1.00
       O13          O  0.2463434  0.5354528  0.4358204    0.00000       Uiso       1.00
