data_crystal

_cell_length_a    37.43340
_cell_length_b    37.43340
_cell_length_c    7.88660
_cell_angle_alpha 90.00000
_cell_angle_beta  90.00000
_cell_angle_gamma 120.00000

_space_group_name_Hall 'P 1'
_space_group_name_H-M_alt  'P 1'

loop_
_symmetry_equiv_pos_as_xyz
'x,y,z' 

loop_
_atom_site_label
_atom_site_type_symbol
_atom_site_fract_x
_atom_site_fract_y
_atom_site_fract_z
C          C       0.31216   0.12823   0.36493 
C          C       0.35516   0.14773   0.39017 
C          C       0.37727   0.18814   0.45636 
C          C       0.35454   0.20755   0.49450 
C          C       0.31295   0.18879   0.46901 
C          C       0.29013   0.14863   0.40518 
C          C       0.24469   0.12775   0.38529 
C          C       0.42247   0.20878   0.48144 
C          C       0.22563   0.14896   0.31972 
C          C       0.18278   0.12921   0.30373 
C          C       0.15813   0.08793   0.35179 
C          C       0.17705   0.06666   0.41909 
C          C       0.21993   0.08639   0.43477 
C          C       0.44041   0.18735   0.55526 
C          C       0.48315   0.20641   0.57471 
C          C       0.50873   0.24716   0.52176 
C          C       0.49089   0.26854   0.44559 
C          C       0.44815   0.24945   0.42588 
N          N       0.11414   0.06951   0.33819 
N          N       0.55257   0.26487   0.53861 
N          N       0.36787   0.24646   0.57081 
C          C       0.33043   0.24794   0.58234 
N          N       0.29805   0.21499   0.52570 
C          C       0.32896   0.28455   0.65260 
N          N       0.36265   0.32285   0.58288 
C          C       0.34723   0.35174   0.56532 
C          C       0.30150   0.32925   0.60963 
C          C       0.28897   0.28421   0.61281 
C          C       0.08766   0.03022   0.33661 
C          C       0.57946   0.30405   0.53948 
C          C       0.04292   0.01507   0.33043 
C          C       0.62407   0.31864   0.54736 
C          C       0.02753   0.04247   0.33007 
C          C       0.65221   0.36115   0.54782 
H          H       0.29626   0.09736   0.31265 
H          H       0.37112   0.13135   0.35624 
H          H       0.24378   0.18076   0.27982 
H          H       0.16866   0.14609   0.25311 
H          H       0.15903   0.03530   0.46409 
H          H       0.23370   0.06960   0.48976 
H          H       0.42132   0.15591   0.59865 
H          H       0.49645   0.18941   0.63182 
H          H       0.50971   0.29939   0.39627 
H          H       0.43526   0.26618   0.36339 
H          H       0.39703   0.26794   0.61601 
H          H       0.33249   0.28458   0.79158 
H          H       0.38739   0.33504   0.66833 
H          H       0.35176   0.36270   0.43276 
H          H       0.36465   0.37926   0.64767 
H          H       0.28299   0.33548   0.51695 
H          H       0.29689   0.33901   0.73620 
H          H       0.27697   0.27072   0.48640 
H          H       0.26450   0.26670   0.70776 
H          H       0.09792   0.00785   0.33911 
H          H       0.56961   0.32673   0.53441 
H          H       0.04865   0.07546   0.33175 
H          H       0.64075   0.38260   0.54566 
C          C       0.87177   0.18393   0.36493 
C          C       0.85227   0.20743   0.39017 
C          C       0.81186   0.18913   0.45636 
C          C       0.79245   0.14699   0.49450 
C          C       0.81121   0.12416   0.46901 
C          C       0.85137   0.14150   0.40518 
C          C       0.87225   0.11694   0.38529 
C          C       0.79122   0.21369   0.48144 
C          C       0.85104   0.07667   0.31972 
C          C       0.87079   0.05357   0.30373 
C          C       0.91207   0.07020   0.35179 
C          C       0.93334   0.11039   0.41909 
C          C       0.91361   0.13354   0.43477 
C          C       0.81265   0.25306   0.55526 
C          C       0.79359   0.27674   0.57471 
C          C       0.75284   0.26157   0.52176 
C          C       0.73146   0.22235   0.44559 
C          C       0.75055   0.19870   0.42588 
N          N       0.93049   0.04463   0.33819 
N          N       0.73513   0.28770   0.53861 
N          N       0.75354   0.12141   0.57081 
C          C       0.75206   0.08249   0.58234 
N          N       0.78501   0.08306   0.52570 
C          C       0.71545   0.04441   0.65260 
N          N       0.67715   0.03980   0.58288 
C          C       0.64826   0.99549   0.56532 
C          C       0.67075   0.97225   0.60963 
C          C       0.71579   0.00476   0.61281 
C          C       0.96978   0.05744   0.33661 
C          C       0.69595   0.27541   0.53948 
C          C       0.98493   0.02785   0.33043 
C          C       0.68136   0.30543   0.54736 
C          C       0.95753   0.98506   0.33007 
C          C       0.63885   0.29106   0.54782 
H          H       0.90264   0.19890   0.31265 
H          H       0.86865   0.23977   0.35624 
H          H       0.81924   0.06302   0.27982 
H          H       0.85391   0.02257   0.25311 
H          H       0.96470   0.12373   0.46409 
H          H       0.93040   0.16410   0.48976 
H          H       0.84409   0.26541   0.59865 
H          H       0.81059   0.30704   0.63182 
H          H       0.70061   0.21032   0.39627 
H          H       0.73382   0.16908   0.36339 
H          H       0.73206   0.12909   0.61601 
H          H       0.71542   0.04791   0.79158 
H          H       0.66496   0.05235   0.66833 
H          H       0.63730   0.98906   0.43276 
H          H       0.62074   0.98539   0.64767 
H          H       0.66452   0.94751   0.51695 
H          H       0.66099   0.95788   0.73620 
H          H       0.72928   0.00625   0.48640 
H          H       0.73330   0.99780   0.70776 
H          H       0.99215   0.09007   0.33911 
H          H       0.67327   0.24288   0.53441 
H          H       0.92454   0.97319   0.33175 
H          H       0.61740   0.25815   0.54566 
C          C       0.81607   0.68784   0.36493 
C          C       0.79257   0.64484   0.39017 
C          C       0.81087   0.62273   0.45636 
C          C       0.85301   0.64546   0.49450 
C          C       0.87584   0.68705   0.46901 
C          C       0.85850   0.70987   0.40518 
C          C       0.88306   0.75531   0.38529 
C          C       0.78631   0.57753   0.48144 
C          C       0.92333   0.77437   0.31972 
C          C       0.94643   0.81722   0.30373 
C          C       0.92980   0.84187   0.35179 
C          C       0.88961   0.82295   0.41909 
C          C       0.86646   0.78007   0.43477 
C          C       0.74694   0.55959   0.55526 
C          C       0.72326   0.51685   0.57471 
C          C       0.73843   0.49127   0.52176 
C          C       0.77765   0.50911   0.44559 
C          C       0.80130   0.55185   0.42588 
N          N       0.95537   0.88586   0.33819 
N          N       0.71230   0.44743   0.53861 
N          N       0.87859   0.63213   0.57081 
C          C       0.91751   0.66957   0.58234 
N          N       0.91694   0.70195   0.52570 
C          C       0.95559   0.67104   0.65260 
N          N       0.96020   0.63735   0.58288 
C          C       0.00451   0.65277   0.56532 
C          C       0.02775   0.69850   0.60963 
C          C       0.99524   0.71103   0.61281 
C          C       0.94256   0.91234   0.33661 
C          C       0.72459   0.42054   0.53948 
C          C       0.97215   0.95708   0.33043 
C          C       0.69457   0.37593   0.54736 
C          C       0.01494   0.97247   0.33007 
C          C       0.70894   0.34779   0.54782 
H          H       0.80110   0.70374   0.31265 
H          H       0.76023   0.62888   0.35624 
H          H       0.93698   0.75622   0.27982 
H          H       0.97743   0.83134   0.25311 
H          H       0.87627   0.84097   0.46409 
H          H       0.83590   0.76630   0.48976 
H          H       0.73459   0.57868   0.59865 
H          H       0.69296   0.50355   0.63182 
H          H       0.78968   0.49029   0.39627 
H          H       0.83092   0.56474   0.36339 
H          H       0.87091   0.60297   0.61601 
H          H       0.95209   0.66751   0.79158 
H          H       0.94765   0.61261   0.66833 
H          H       0.01094   0.64824   0.43276 
H          H       0.01461   0.63535   0.64767 
H          H       0.05249   0.71701   0.51695 
H          H       0.04212   0.70311   0.73620 
H          H       0.99375   0.72303   0.48640 
H          H       0.00220   0.73550   0.70776 
H          H       0.90993   0.90208   0.33911 
H          H       0.75712   0.43039   0.53441 
H          H       0.02681   0.95135   0.33175 
H          H       0.74185   0.35925   0.54566 
C          C       0.31216   0.12823   0.86493 
C          C       0.35516   0.14773   0.89017 
C          C       0.37727   0.18814   0.95636 
C          C       0.35454   0.20755   0.99450 
C          C       0.31295   0.18879   0.96901 
C          C       0.29013   0.14863   0.90518 
C          C       0.24469   0.12775   0.88530 
C          C       0.42247   0.20878   0.98143 
C          C       0.22563   0.14896   0.81972 
C          C       0.18278   0.12921   0.80373 
C          C       0.15813   0.08793   0.85179 
C          C       0.17705   0.06666   0.91909 
C          C       0.21993   0.08639   0.93477 
C          C       0.44041   0.18735   1.05526 
C          C       0.48315   0.20641   1.07471 
C          C       0.50873   0.24716   1.02176 
C          C       0.49089   0.26854   0.94559 
C          C       0.44815   0.24945   0.92588 
N          N       0.11414   0.06951   0.83819 
N          N       0.55257   0.26487   1.03861 
N          N       0.36787   0.24646   1.07082 
C          C       0.33043   0.24794   1.08234 
N          N       0.29805   0.21499   1.02570 
C          C       0.32896   0.28455   1.15260 
N          N       0.36265   0.32285   1.08287 
C          C       0.34723   0.35174   1.06532 
C          C       0.30150   0.32925   1.10963 
C          C       0.28897   0.28421   1.11280 
C          C       0.08766   0.03022   0.83661 
C          C       0.57946   0.30405   1.03948 
C          C       0.04292   0.01507   0.83043 
C          C       0.62407   0.31864   1.04737 
C          C       0.02753   0.04247   0.83007 
C          C       0.65221   0.36115   1.04783 
H          H       0.29626   0.09736   0.81264 
H          H       0.37112   0.13135   0.85624 
H          H       0.24378   0.18076   0.77982 
H          H       0.16866   0.14609   0.75311 
H          H       0.15903   0.03530   0.96409 
H          H       0.23370   0.06960   0.98976 
H          H       0.42132   0.15591   1.09865 
H          H       0.49645   0.18941   1.13182 
H          H       0.50971   0.29939   0.89628 
H          H       0.43526   0.26618   0.86338 
H          H       0.39703   0.26794   1.11601 
H          H       0.33249   0.28458   1.29158 
H          H       0.38739   0.33504   1.16833 
H          H       0.35176   0.36270   0.93276 
H          H       0.36465   0.37926   1.14767 
H          H       0.28299   0.33548   1.01695 
H          H       0.29689   0.33901   1.23620 
H          H       0.27697   0.27072   0.98640 
H          H       0.26450   0.26670   1.20776 
H          H       0.09792   0.00785   0.83912 
H          H       0.56961   0.32673   1.03442 
H          H       0.04865   0.07546   0.83175 
H          H       0.64075   0.38260   1.04566 
C          C       0.87177   0.18393   0.86493 
C          C       0.85227   0.20743   0.89017 
C          C       0.81186   0.18913   0.95636 
C          C       0.79245   0.14699   0.99450 
C          C       0.81121   0.12416   0.96901 
C          C       0.85137   0.14150   0.90518 
C          C       0.87225   0.11694   0.88530 
C          C       0.79122   0.21369   0.98143 
C          C       0.85104   0.07667   0.81972 
C          C       0.87079   0.05357   0.80373 
C          C       0.91207   0.07020   0.85179 
C          C       0.93334   0.11039   0.91909 
C          C       0.91361   0.13354   0.93477 
C          C       0.81265   0.25306   1.05526 
C          C       0.79359   0.27674   1.07471 
C          C       0.75284   0.26157   1.02176 
C          C       0.73146   0.22235   0.94559 
C          C       0.75055   0.19870   0.92588 
N          N       0.93049   0.04463   0.83819 
N          N       0.73513   0.28770   1.03861 
N          N       0.75354   0.12141   1.07082 
C          C       0.75206   0.08249   1.08234 
N          N       0.78501   0.08306   1.02570 
C          C       0.71545   0.04441   1.15260 
N          N       0.67715   0.03980   1.08287 
C          C       0.64826   0.99549   1.06532 
C          C       0.67075   0.97225   1.10963 
C          C       0.71579   0.00476   1.11280 
C          C       0.96978   0.05744   0.83661 
C          C       0.69595   0.27541   1.03948 
C          C       0.98493   0.02785   0.83043 
C          C       0.68136   0.30543   1.04737 
C          C       0.95753   0.98506   0.83007 
C          C       0.63885   0.29106   1.04783 
H          H       0.90264   0.19890   0.81264 
H          H       0.86865   0.23977   0.85624 
H          H       0.81924   0.06302   0.77982 
H          H       0.85391   0.02257   0.75311 
H          H       0.96470   0.12373   0.96409 
H          H       0.93040   0.16410   0.98976 
H          H       0.84409   0.26541   1.09865 
H          H       0.81059   0.30704   1.13182 
H          H       0.70061   0.21032   0.89628 
H          H       0.73382   0.16908   0.86338 
H          H       0.73206   0.12909   1.11601 
H          H       0.71542   0.04791   1.29158 
H          H       0.66496   0.05235   1.16833 
H          H       0.63730   0.98906   0.93276 
H          H       0.62074   0.98539   1.14767 
H          H       0.66452   0.94751   1.01695 
H          H       0.66099   0.95788   1.23620 
H          H       0.72928   0.00625   0.98640 
H          H       0.73330   0.99780   1.20776 
H          H       0.99215   0.09007   0.83912 
H          H       0.67327   0.24288   1.03442 
H          H       0.92454   0.97319   0.83175 
H          H       0.61740   0.25815   1.04566 
C          C       0.81607   0.68784   0.86493 
C          C       0.79257   0.64484   0.89017 
C          C       0.81087   0.62273   0.95636 
C          C       0.85301   0.64546   0.99450 
C          C       0.87584   0.68705   0.96901 
C          C       0.85850   0.70987   0.90518 
C          C       0.88306   0.75531   0.88530 
C          C       0.78631   0.57753   0.98143 
C          C       0.92333   0.77437   0.81972 
C          C       0.94643   0.81722   0.80373 
C          C       0.92980   0.84187   0.85179 
C          C       0.88961   0.82295   0.91909 
C          C       0.86646   0.78007   0.93477 
C          C       0.74694   0.55959   1.05526 
C          C       0.72326   0.51685   1.07471 
C          C       0.73843   0.49127   1.02176 
C          C       0.77765   0.50911   0.94559 
C          C       0.80130   0.55185   0.92588 
N          N       0.95537   0.88586   0.83819 
N          N       0.71230   0.44743   1.03861 
N          N       0.87859   0.63213   1.07082 
C          C       0.91751   0.66957   1.08234 
N          N       0.91694   0.70195   1.02570 
C          C       0.95559   0.67104   1.15260 
N          N       0.96020   0.63735   1.08287 
C          C       0.00451   0.65277   1.06532 
C          C       0.02775   0.69850   1.10963 
C          C       0.99524   0.71103   1.11280 
C          C       0.94256   0.91234   0.83661 
C          C       0.72459   0.42054   1.03948 
C          C       0.97215   0.95708   0.83043 
C          C       0.69457   0.37593   1.04737 
C          C       0.01494   0.97247   0.83007 
C          C       0.70894   0.34779   1.04783 
H          H       0.80110   0.70374   0.81264 
H          H       0.76023   0.62888   0.85624 
H          H       0.93698   0.75622   0.77982 
H          H       0.97743   0.83134   0.75311 
H          H       0.87627   0.84097   0.96409 
H          H       0.83590   0.76630   0.98976 
H          H       0.73459   0.57868   1.09865 
H          H       0.69296   0.50355   1.13182 
H          H       0.78968   0.49029   0.89628 
H          H       0.83092   0.56474   0.86338 
H          H       0.87091   0.60297   1.11601 
H          H       0.95209   0.66751   1.29158 
H          H       0.94765   0.61261   1.16833 
H          H       0.01094   0.64824   0.93276 
H          H       0.01461   0.63535   1.14767 
H          H       0.05249   0.71701   1.01695 
H          H       0.04212   0.70311   1.23620 
H          H       0.99375   0.72303   0.98640 
H          H       0.00220   0.73550   1.20776 
H          H       0.90993   0.90208   0.83912 
H          H       0.75712   0.43039   1.03442 
H          H       0.02681   0.95135   0.83175 
H          H       0.74185   0.35925   1.04566 
