data_crystal

_cell_length_a    37.41300
_cell_length_b    37.11300
_cell_length_c    8.20400
_cell_angle_alpha 90.00000
_cell_angle_beta  89.11300
_cell_angle_gamma 90.00000

_space_group_name_Hall 'P 1'
_space_group_name_H-M_alt  'P 1'

loop_
_symmetry_equiv_pos_as_xyz
'x,y,z' 

loop_
_atom_site_label
_atom_site_type_symbol
_atom_site_fract_x
_atom_site_fract_y
_atom_site_fract_z
C          C       0.26630   0.75791   0.48750 
C          C       0.23340   0.73299   0.48745 
C          C       0.24930   0.74581   0.74623 
C          C       0.22600   0.77015   0.85265 
C          C       0.23370   0.81875   0.44032 
C          C       0.23640   0.83802   0.58793 
C          C       0.21020   0.86261   0.63600 
C          C       0.18040   0.86885   0.53816 
C          C       0.17720   0.84987   0.39139 
C          C       0.20350   0.82547   0.34239 
C          C       0.26460   0.79395   0.38354 
C          C       0.15330   0.89551   0.59042 
C          C       0.09530   0.92343   0.56138 
N          N       0.12310   0.89874   0.51491 
C          C       0.29960   0.81598   0.39236 
C          C       0.33040   0.80448   0.47656 
C          C       0.36100   0.82579   0.48112 
C          C       0.36230   0.85915   0.40179 
C          C       0.33230   0.87065   0.31523 
C          C       0.30160   0.84927   0.30961 
C          C       0.27240   0.72156   0.85294 
C          C       0.39550   0.88085   0.40779 
N          N       0.39700   0.91287   0.34389 
C          C       0.42770   0.93610   0.33313 
C          C       0.26640   0.67204   0.44706 
C          C       0.29720   0.66521   0.35171 
C          C       0.32310   0.64080   0.40310 
C          C       0.31900   0.62190   0.54973 
C          C       0.28870   0.62839   0.64549 
C          C       0.26280   0.65302   0.59508 
C          C       0.23570   0.69655   0.38661 
C          C       0.34550   0.59488   0.60339 
C          C       0.40270   0.56535   0.57536 
N          N       0.37580   0.59088   0.52828 
C          C       0.20070   0.67446   0.39503 
C          C       0.19940   0.64074   0.31581 
C          C       0.16880   0.61926   0.32146 
C          C       0.13810   0.63111   0.40398 
C          C       0.13880   0.66491   0.47949 
C          C       0.16940   0.68631   0.47533 
C          C       0.10510   0.60926   0.40928 
N          N       0.10460   0.57636   0.35518 
C          C       0.07430   0.55271   0.34525 
O          O       0.27200   0.76715   0.65012 
O          O       0.24010   0.70475   0.22065 
O          O       0.22680   0.72440   0.65040 
O          O       0.26100   0.78510   0.21802 
C          C       0.10270   0.95665   0.63631 
C          C       0.07500   0.97796   0.69755 
C          C       0.03950   0.96657   0.68471 
C          C       0.03210   0.93457   0.60056 
C          C       0.05980   0.91348   0.53725 
C          C       0.39390   0.53213   0.64724 
C          C       0.42060   0.50976   0.70843 
C          C       0.45650   0.52006   0.69867 
C          C       0.46530   0.55218   0.61827 
C          C       0.43860   0.57432   0.55454 
C          C       0.03890   0.56510   0.35229 
C          C       0.01050   0.54149   0.32157 
C          C       0.01700   0.50520   0.28416 
C          C       0.08050   0.51627   0.31266 
C          C       0.46270   0.92401   0.35979 
C          C       0.49180   0.94672   0.32790 
C          C       0.48640   0.98191   0.27085 
C          C       0.45140   0.99427   0.25036 
C          C       0.42250   0.97155   0.28058 
C          C       0.51670   0.00226   0.19172 
C          C       0.01160   0.98271   0.79472 
C          C       0.23603   0.21941   0.51480 
C          C       0.26520   0.24842   0.50010 
C          C       0.25352   0.23667   0.76513 
C          C       0.27513   0.21008   0.86666 
C          C       0.17482   0.19265   0.42983 
C          C       0.18205   0.16154   0.52355 
C          C       0.15793   0.13296   0.53058 
C          C       0.12590   0.13421   0.44454 
C          C       0.11829   0.16486   0.35100 
C          C       0.14244   0.19354   0.34349 
C          C       0.20033   0.22527   0.41613 
C          C       0.10199   0.10253   0.44888 
C          C       0.04868   0.07162   0.35406 
N          N       0.07188   0.10226   0.37139 
C          C       0.17989   0.25901   0.47644 
C          C       0.16183   0.25808   0.62753 
C          C       0.14025   0.28662   0.67797 
C          C       0.13599   0.31712   0.57959 
C          C       0.15433   0.31889   0.43068 
C          C       0.17575   0.29019   0.37911 
C          C       0.23493   0.26407   0.87561 
C          C       0.11085   0.34557   0.63160 
N          N       0.10836   0.37623   0.55559 
C          C       0.08281   0.40341   0.59999 
C          C       0.32519   0.27010   0.37042 
C          C       0.35482   0.26479   0.26708 
C          C       0.38133   0.29084   0.25153 
C          C       0.37914   0.32324   0.33808 
C          C       0.34932   0.32949   0.43789 
C          C       0.32256   0.30340   0.45334 
C          C       0.29877   0.23859   0.39110 
C          C       0.40803   0.34999   0.31889 
C          C       0.43393   0.40846   0.37574 
N          N       0.40760   0.38063   0.39565 
C          C       0.32022   0.20670   0.46293 
C          C       0.32285   0.17295   0.38371 
C          C       0.34615   0.14636   0.43984 
C          C       0.36775   0.15274   0.57552 
C          C       0.36479   0.18571   0.65724 
C          C       0.34154   0.21227   0.60175 
C          C       0.39480   0.12649   0.62946 
N          N       0.39840   0.09513   0.56048 
C          C       0.42571   0.06977   0.60356 
O          O       0.22767   0.21713   0.68006 
O          O       0.28730   0.23067   0.23229 
O          O       0.27636   0.25543   0.65891 
O          O       0.20832   0.22814   0.24892 
C          C       0.01366   0.07729   0.30221 
C          C       0.99170   0.04817   0.26231 
C          C       0.00444   0.01273   0.27299 
C          C       0.03916   0.00702   0.32913 
C          C       0.06105   0.03601   0.36987 
C          C       0.46885   0.40117   0.32204 
C          C       0.49179   0.42938   0.28009 
C          C       0.48051   0.46529   0.29325 
C          C       0.44660   0.47244   0.35769 
C          C       0.42374   0.44428   0.40072 
C          C       0.45939   0.08128   0.65571 
C          C       0.48457   0.05635   0.70823 
C          C       0.47694   0.01934   0.70759 
C          C       0.44393   0.00768   0.64869 
C          C       0.41865   0.03276   0.59521 
C          C       0.04852   0.39405   0.65390 
C          C       0.02523   0.42040   0.71146 
C          C       0.03552   0.45674   0.71536 
C          C       0.06907   0.46638   0.65361 
C          C       0.09234   0.43990   0.59384 
C          C       0.01422   0.48285   0.81671 
C          C       0.49950   0.49418   0.19823 
C          C       0.94774   0.99273   0.71696 
H          H       0.28950   0.74194   0.44492 
H          H       0.21050   0.74878   0.44197 
H          H       0.21130   0.75399   0.94475 
H          H       0.20610   0.78424   0.77625 
H          H       0.24250   0.79070   0.91476 
H          H       0.25940   0.83468   0.66517 
H          H       0.21340   0.87701   0.74974 
H          H       0.15460   0.85434   0.31246 
H          H       0.19980   0.81267   0.22569 
H          H       0.15850   0.91126   0.69887 
H          H       0.33160   0.77901   0.53926 
H          H       0.38400   0.81606   0.54711 
H          H       0.33250   0.89607   0.25082 
H          H       0.27900   0.85892   0.24085 
H          H       0.29250   0.70751   0.77683 
H          H       0.25580   0.70099   0.91498 
H          H       0.28690   0.73779   0.94495 
H          H       0.41840   0.86935   0.46701 
H          H       0.30160   0.67786   0.23504 
H          H       0.34610   0.63620   0.32591 
H          H       0.28480   0.61407   0.75915 
H          H       0.23940   0.65652   0.67059 
H          H       0.33960   0.57928   0.71177 
H          H       0.22240   0.63081   0.24994 
H          H       0.16910   0.59349   0.25995 
H          H       0.11540   0.67490   0.54234 
H          H       0.16780   0.71209   0.53521 
H          H       0.08130   0.62123   0.46074 
H          H       0.26250   0.71843   0.20744 
H          H       0.23860   0.77146   0.20470 
H          H       0.12980   0.96565   0.65193 
H          H       0.08150   0.00236   0.76323 
H          H       0.00510   0.92471   0.59438 
H          H       0.05360   0.88814   0.47878 
H          H       0.36650   0.52388   0.66017 
H          H       0.41300   0.48530   0.77132 
H          H       0.49270   0.56128   0.61529 
H          H       0.44590   0.59966   0.49839 
H          H       0.03290   0.59317   0.37297 
H          H       0.98370   0.55201   0.31727 
H          H       0.10750   0.50628   0.30489 
H          H       0.46810   0.89667   0.39669 
H          H       0.51850   0.93611   0.33810 
H          H       0.44650   0.02094   0.20234 
H          H       0.39580   0.98128   0.25781 
H          H       0.50570   0.02401   0.11426 
H          H       0.53070   0.98318   0.10899 
H          H       0.02450   0.99948   0.88965 
H          H       0.99890   0.95977   0.85915 
H          H       0.24778   0.19323   0.47776 
H          H       0.25305   0.27349   0.45194 
H          H       0.28551   0.18817   0.78780 
H          H       0.25798   0.19743   0.96110 
H          H       0.29798   0.22387   0.92472 
H          H       0.20623   0.15837   0.59200 
H          H       0.16457   0.10952   0.60282 
H          H       0.09387   0.16656   0.28208 
H          H       0.13585   0.21669   0.26939 
H          H       0.11061   0.07908   0.51607 
H          H       0.16332   0.23456   0.70491 
H          H       0.12623   0.28450   0.79321 
H          H       0.15130   0.34199   0.35155 
H          H       0.18810   0.29266   0.26063 
H          H       0.21340   0.25085   0.94640 
H          H       0.22281   0.28567   0.80071 
H          H       0.25420   0.27667   0.96042 
H          H       0.09438   0.34040   0.73787 
H          H       0.35777   0.23984   0.20008 
H          H       0.40384   0.28547   0.17235 
H          H       0.34667   0.35452   0.50445 
H          H       0.30034   0.30972   0.53183 
H          H       0.42892   0.34413   0.23163 
H          H       0.30806   0.16686   0.27483 
H          H       0.34799   0.12119   0.37384 
H          H       0.38126   0.19138   0.76204 
H          H       0.34129   0.23788   0.66451 
H          H       0.41192   0.13404   0.72965 
H          H       0.27117   0.20970   0.23622 
H          H       0.22457   0.24874   0.23240 
H          H       0.00381   0.10444   0.28688 
H          H       0.96540   0.05341   0.21434 
H          H       0.05025   0.98010   0.32998 
H          H       0.08823   0.03030   0.40316 
H          H       0.47816   0.37383   0.30727 
H          H       0.51764   0.42313   0.22862 
H          H       0.43684   0.49982   0.36302 
H          H       0.39710   0.45043   0.44283 
H          H       0.46613   0.10958   0.65824 
H          H       0.50965   0.06615   0.75489 
H          H       0.43715   0.97940   0.65115 
H          H       0.39296   0.02342   0.55392 
H          H       0.04002   0.36622   0.65515 
H          H       0.99960   0.41212   0.75966 
H          H       0.07784   0.49411   0.65910 
H          H       0.11852   0.44763   0.55101 
H          H       0.03187   0.49422   0.91200 
H          H       0.99330   0.46754   0.88157 
H          H       0.47856   0.51019   0.13735 
H          H       0.51591   0.48174   0.10035 
H          H       0.94185   0.96511   0.74939 
C          C       0.73370   0.25791   0.51250 
C          C       0.76660   0.23299   0.51255 
C          C       0.75070   0.24581   0.25377 
C          C       0.77400   0.27015   0.14735 
C          C       0.76630   0.31875   0.55968 
C          C       0.76360   0.33802   0.41207 
C          C       0.78980   0.36261   0.36400 
C          C       0.81960   0.36885   0.46184 
C          C       0.82280   0.34987   0.60861 
C          C       0.79650   0.32547   0.65761 
C          C       0.73540   0.29395   0.61646 
C          C       0.84670   0.39551   0.40958 
C          C       0.90470   0.42343   0.43862 
N          N       0.87690   0.39874   0.48509 
C          C       0.70040   0.31598   0.60764 
C          C       0.66960   0.30448   0.52344 
C          C       0.63900   0.32579   0.51888 
C          C       0.63770   0.35915   0.59821 
C          C       0.66770   0.37065   0.68477 
C          C       0.69840   0.34927   0.69039 
C          C       0.72760   0.22156   0.14706 
C          C       0.60450   0.38085   0.59221 
N          N       0.60300   0.41287   0.65611 
C          C       0.57230   0.43610   0.66687 
C          C       0.73360   0.17204   0.55294 
C          C       0.70280   0.16521   0.64829 
C          C       0.67690   0.14080   0.59690 
C          C       0.68100   0.12190   0.45027 
C          C       0.71130   0.12839   0.35451 
C          C       0.73720   0.15302   0.40492 
C          C       0.76430   0.19655   0.61339 
C          C       0.65450   0.09488   0.39661 
C          C       0.59730   0.06535   0.42464 
N          N       0.62420   0.09088   0.47172 
C          C       0.79930   0.17446   0.60497 
C          C       0.80060   0.14074   0.68419 
C          C       0.83120   0.11926   0.67854 
C          C       0.86190   0.13111   0.59602 
C          C       0.86120   0.16491   0.52051 
C          C       0.83060   0.18631   0.52467 
C          C       0.89490   0.10926   0.59072 
N          N       0.89540   0.07636   0.64482 
C          C       0.92570   0.05271   0.65475 
O          O       0.72800   0.26715   0.34988 
O          O       0.75990   0.20475   0.77935 
O          O       0.77320   0.22440   0.34960 
O          O       0.73900   0.28510   0.78198 
C          C       0.89730   0.45665   0.36369 
C          C       0.92500   0.47796   0.30245 
C          C       0.96050   0.46657   0.31529 
C          C       0.96790   0.43457   0.39944 
C          C       0.94020   0.41348   0.46275 
C          C       0.60610   0.03213   0.35276 
C          C       0.57940   0.00976   0.29157 
C          C       0.54350   0.02006   0.30133 
C          C       0.53470   0.05218   0.38173 
C          C       0.56140   0.07432   0.44546 
C          C       0.96110   0.06510   0.64771 
C          C       0.98950   0.04149   0.67843 
C          C       0.98300   0.00520   0.71584 
C          C       0.91950   0.01627   0.68734 
C          C       0.53730   0.42401   0.64021 
C          C       0.50820   0.44672   0.67210 
C          C       0.51360   0.48191   0.72915 
C          C       0.54860   0.49427   0.74964 
C          C       0.57750   0.47155   0.71942 
C          C       0.48330   0.50226   0.80828 
C          C       0.98840   0.48271   0.20528 
C          C       0.76397   0.71941   0.48520 
C          C       0.73480   0.74842   0.49990 
C          C       0.74648   0.73667   0.23487 
C          C       0.72487   0.71008   0.13334 
C          C       0.82518   0.69265   0.57017 
C          C       0.81795   0.66154   0.47645 
C          C       0.84207   0.63296   0.46942 
C          C       0.87410   0.63421   0.55546 
C          C       0.88171   0.66486   0.64900 
C          C       0.85756   0.69354   0.65651 
C          C       0.79967   0.72527   0.58387 
C          C       0.89801   0.60253   0.55112 
C          C       0.95132   0.57162   0.64594 
N          N       0.92812   0.60226   0.62861 
C          C       0.82011   0.75901   0.52356 
C          C       0.83817   0.75808   0.37247 
C          C       0.85975   0.78662   0.32203 
C          C       0.86401   0.81712   0.42041 
C          C       0.84567   0.81889   0.56932 
C          C       0.82425   0.79019   0.62089 
C          C       0.76507   0.76407   0.12439 
C          C       0.88915   0.84557   0.36840 
N          N       0.89164   0.87623   0.44441 
C          C       0.91719   0.90341   0.40001 
C          C       0.67481   0.77010   0.62958 
C          C       0.64518   0.76479   0.73292 
C          C       0.61867   0.79084   0.74847 
C          C       0.62086   0.82324   0.66192 
C          C       0.65068   0.82949   0.56211 
C          C       0.67744   0.80340   0.54666 
C          C       0.70123   0.73859   0.60890 
C          C       0.59197   0.84999   0.68111 
C          C       0.56607   0.90846   0.62426 
N          N       0.59240   0.88063   0.60435 
C          C       0.67978   0.70670   0.53707 
C          C       0.67715   0.67295   0.61629 
C          C       0.65385   0.64636   0.56016 
C          C       0.63225   0.65274   0.42448 
C          C       0.63521   0.68571   0.34276 
C          C       0.65846   0.71227   0.39825 
C          C       0.60520   0.62649   0.37054 
N          N       0.60160   0.59513   0.43952 
C          C       0.57429   0.56977   0.39644 
O          O       0.77233   0.71713   0.31994 
O          O       0.71270   0.73067   0.76771 
O          O       0.72364   0.75543   0.34109 
O          O       0.79168   0.72814   0.75108 
C          C       0.98634   0.57729   0.69779 
C          C       0.00830   0.54817   0.73769 
C          C       0.99556   0.51273   0.72701 
C          C       0.96084   0.50702   0.67087 
C          C       0.93895   0.53601   0.63013 
C          C       0.53115   0.90117   0.67796 
C          C       0.50821   0.92938   0.71991 
C          C       0.51949   0.96529   0.70675 
C          C       0.55340   0.97244   0.64231 
C          C       0.57626   0.94428   0.59928 
C          C       0.54061   0.58128   0.34429 
C          C       0.51543   0.55635   0.29177 
C          C       0.52306   0.51934   0.29241 
C          C       0.55607   0.50768   0.35131 
C          C       0.58135   0.53276   0.40479 
C          C       0.95148   0.89405   0.34610 
C          C       0.97477   0.92040   0.28854 
C          C       0.96448   0.95674   0.28464 
C          C       0.93093   0.96638   0.34639 
C          C       0.90766   0.93990   0.40616 
C          C       0.98578   0.98285   0.18329 
C          C       0.50050   0.99418   0.80177 
C          C       0.05226   0.49273   0.28304 
H          H       0.71050   0.24194   0.55508 
H          H       0.78950   0.24878   0.55803 
H          H       0.78870   0.25399   0.05525 
H          H       0.79390   0.28424   0.22375 
H          H       0.75750   0.29070   0.08524 
H          H       0.74060   0.33468   0.33483 
H          H       0.78660   0.37701   0.25026 
H          H       0.84540   0.35434   0.68754 
H          H       0.80020   0.31267   0.77431 
H          H       0.84150   0.41126   0.30113 
H          H       0.66840   0.27901   0.46074 
H          H       0.61600   0.31606   0.45289 
H          H       0.66750   0.39607   0.74918 
H          H       0.72100   0.35892   0.75915 
H          H       0.70750   0.20751   0.22317 
H          H       0.74420   0.20099   0.08502 
H          H       0.71310   0.23779   0.05505 
H          H       0.58160   0.36935   0.53299 
H          H       0.69840   0.17786   0.76496 
H          H       0.65390   0.13620   0.67409 
H          H       0.71520   0.11407   0.24085 
H          H       0.76060   0.15652   0.32941 
H          H       0.66040   0.07928   0.28823 
H          H       0.77760   0.13081   0.75006 
H          H       0.83090   0.09349   0.74005 
H          H       0.88460   0.17490   0.45766 
H          H       0.83220   0.21209   0.46479 
H          H       0.91870   0.12123   0.53926 
H          H       0.73750   0.21843   0.79256 
H          H       0.76140   0.27146   0.79530 
H          H       0.87020   0.46565   0.34807 
H          H       0.91850   0.50236   0.23677 
H          H       0.99490   0.42471   0.40562 
H          H       0.94640   0.38814   0.52122 
H          H       0.63350   0.02388   0.33983 
H          H       0.58700   0.98530   0.22868 
H          H       0.50730   0.06128   0.38471 
H          H       0.55410   0.09966   0.50161 
H          H       0.96710   0.09317   0.62703 
H          H       0.01630   0.05201   0.68273 
H          H       0.89250   0.00628   0.69511 
H          H       0.53190   0.39667   0.60331 
H          H       0.48150   0.43611   0.66190 
H          H       0.55350   0.52094   0.79766 
H          H       0.60420   0.48128   0.74219 
H          H       0.49430   0.52401   0.88574 
H          H       0.46930   0.48318   0.89101 
H          H       0.97550   0.49948   0.11035 
H          H       0.00110   0.45977   0.14085 
H          H       0.75222   0.69323   0.52224 
H          H       0.74695   0.77349   0.54806 
H          H       0.71449   0.68817   0.21220 
H          H       0.74202   0.69743   0.03890 
H          H       0.70202   0.72387   0.07528 
H          H       0.79377   0.65837   0.40800 
H          H       0.83543   0.60952   0.39718 
H          H       0.90613   0.66656   0.71792 
H          H       0.86415   0.71669   0.73061 
H          H       0.88939   0.57908   0.48393 
H          H       0.83668   0.73456   0.29509 
H          H       0.87377   0.78450   0.20679 
H          H       0.84870   0.84199   0.64845 
H          H       0.81190   0.79266   0.73937 
H          H       0.78660   0.75085   0.05360 
H          H       0.77719   0.78567   0.19929 
H          H       0.74580   0.77667   0.03958 
H          H       0.90562   0.84040   0.26213 
H          H       0.64223   0.73984   0.79992 
H          H       0.59616   0.78547   0.82765 
H          H       0.65333   0.85452   0.49555 
H          H       0.69966   0.80972   0.46817 
H          H       0.57108   0.84413   0.76837 
H          H       0.69194   0.66686   0.72517 
H          H       0.65201   0.62119   0.62616 
H          H       0.61874   0.69138   0.23796 
H          H       0.65871   0.73788   0.33549 
H          H       0.58808   0.63404   0.27035 
H          H       0.72883   0.70970   0.76378 
H          H       0.77543   0.74874   0.76760 
H          H       0.99619   0.60444   0.71312 
H          H       0.03460   0.55341   0.78566 
H          H       0.94975   0.48010   0.67002 
H          H       0.91177   0.53030   0.59684 
H          H       0.52184   0.87383   0.69273 
H          H       0.48236   0.92313   0.77138 
H          H       0.56316   0.99982   0.63698 
H          H       0.60290   0.95043   0.55717 
H          H       0.53387   0.60958   0.34176 
H          H       0.49035   0.56615   0.24511 
H          H       0.56285   0.47940   0.34885 
H          H       0.60704   0.52342   0.44608 
H          H       0.95998   0.86622   0.34485 
H          H       0.00040   0.91212   0.24034 
H          H       0.92216   0.99411   0.34090 
H          H       0.88148   0.94763   0.44899 
H          H       0.96813   0.99422   0.08800 
H          H       0.00670   0.96754   0.11843 
H          H       0.52144   0.01019   0.86265 
H          H       0.48409   0.98174   0.89965 
H          H       0.05815   0.46511   0.25061 
