data_NUS-14
_audit_creation_date              0000-00-00
_audit_creation_method            'LanYouShi'
_symmetry_space_group_name_H-M    'P1'
_cell_length_a                    47.8844986
_cell_length_b                    47.8844986
_cell_length_c                    3.5362000
_cell_angle_alpha                 90.0000000
_cell_angle_beta                  90.0000000
_cell_angle_gamma                 120.0000000
loop_
_atom_site_label
_atom_site_type_symbol
_atom_site_fract_x
_atom_site_fract_y
_atom_site_fract_z
_atom_site_U_iso_or_equiv
_atom_site_adp_type
_atom_site_occupancy
        N1          N  0.1433357  0.5813457  0.5000030    0.00000       Uiso       1.00
        N2          N  0.4186550  0.5619908  0.5000030    0.00000       Uiso       1.00
        N3          N  0.4380100  0.8566651  0.5000030    0.00000       Uiso       1.00
        N4          N  0.8566651  0.4186550  0.5000030    0.00000       Uiso       1.00
        N5          N  0.5813458  0.4380100  0.5000030    0.00000       Uiso       1.00
        N6          N  0.5619908  0.1433357  0.5000030    0.00000       Uiso       1.00
        N7          N  0.0095291  0.5155377  0.5000030    0.00000       Uiso       1.00
        N8          N  0.4844631  0.4939922  0.5000030    0.00000       Uiso       1.00
        N9          N  0.5060086  0.9904717  0.5000030    0.00000       Uiso       1.00
       N10          N  0.9904717  0.4844631  0.5000030    0.00000       Uiso       1.00
       N11          N  0.5155377  0.5060086  0.5000030    0.00000       Uiso       1.00
       N12          N  0.4939922  0.0095291  0.5000030    0.00000       Uiso       1.00
        C1          C  0.1662103  0.6129524  0.5000030    0.00000       Uiso       1.00
        C2          C  0.1107449  0.5666216  0.5000030    0.00000       Uiso       1.00
        C3          C  0.0927575  0.5827251  0.5000030    0.00000       Uiso       1.00
        C4          C  0.0587770  0.5650735  0.5000030    0.00000       Uiso       1.00
        C5          C  0.0420991  0.5311059  0.5000030    0.00000       Uiso       1.00
        C6          C  0.0600288  0.5150051  0.5000030    0.00000       Uiso       1.00
        C7          C  0.0939999  0.5326369  0.5000030    0.00000       Uiso       1.00
        C1          C  0.3870485  0.5532588  0.5000030    0.00000       Uiso       1.00
        C2          C  0.4333792  0.5441241  0.5000030    0.00000       Uiso       1.00
        C3          C  0.4172757  0.5100332  0.5000030    0.00000       Uiso       1.00
        C4          C  0.4349273  0.4937042  0.5000030    0.00000       Uiso       1.00
        C5          C  0.4688949  0.5109940  0.5000030    0.00000       Uiso       1.00
        C6          C  0.4849957  0.5450246  0.5000030    0.00000       Uiso       1.00
        C7          C  0.4673639  0.5613638  0.5000030    0.00000       Uiso       1.00
        C1          C  0.4467420  0.8337905  0.5000030    0.00000       Uiso       1.00
        C2          C  0.4558767  0.8892559  0.5000030    0.00000       Uiso       1.00
        C3          C  0.4899676  0.9072433  0.5000030    0.00000       Uiso       1.00
        C4          C  0.5062966  0.9412238  0.5000030    0.00000       Uiso       1.00
        C5          C  0.4890068  0.9579017  0.5000030    0.00000       Uiso       1.00
        C6          C  0.4549763  0.9399719  0.5000030    0.00000       Uiso       1.00
        C7          C  0.4386370  0.9060009  0.5000030    0.00000       Uiso       1.00
        C1          C  0.8337904  0.3870485  0.5000030    0.00000       Uiso       1.00
        C2          C  0.8892559  0.4333792  0.5000030    0.00000       Uiso       1.00
        C3          C  0.9072433  0.4172757  0.5000030    0.00000       Uiso       1.00
        C4          C  0.9412238  0.4349272  0.5000030    0.00000       Uiso       1.00
        C5          C  0.9579017  0.4688949  0.5000030    0.00000       Uiso       1.00
        C6          C  0.9399720  0.4849957  0.5000030    0.00000       Uiso       1.00
        C7          C  0.9060009  0.4673639  0.5000030    0.00000       Uiso       1.00
        C1          C  0.6129524  0.4467420  0.5000030    0.00000       Uiso       1.00
        C2          C  0.5666216  0.4558767  0.5000030    0.00000       Uiso       1.00
        C3          C  0.5827251  0.4899676  0.5000030    0.00000       Uiso       1.00
        C4          C  0.5650735  0.5062966  0.5000030    0.00000       Uiso       1.00
        C5          C  0.5311059  0.4890068  0.5000030    0.00000       Uiso       1.00
        C6          C  0.5150051  0.4549763  0.5000030    0.00000       Uiso       1.00
        C7          C  0.5326369  0.4386370  0.5000030    0.00000       Uiso       1.00
        C1          C  0.5532588  0.1662103  0.5000030    0.00000       Uiso       1.00
        C2          C  0.5441240  0.1107449  0.5000030    0.00000       Uiso       1.00
        C3          C  0.5100332  0.0927575  0.5000030    0.00000       Uiso       1.00
        C4          C  0.4937042  0.0587770  0.5000030    0.00000       Uiso       1.00
        C5          C  0.5109940  0.0420991  0.5000030    0.00000       Uiso       1.00
        C6          C  0.5450245  0.0600288  0.5000030    0.00000       Uiso       1.00
        C7          C  0.5613638  0.0939999  0.5000030    0.00000       Uiso       1.00
        H1          H  0.1593632  0.6300282  0.5000030    0.00000       Uiso       1.00
        H2          H  0.1040806  0.6072841  0.5000030    0.00000       Uiso       1.00
        H3          H  0.1066158  0.5205932  0.5000030    0.00000       Uiso       1.00
        H4          H  0.0461046  0.5770550  0.5000030    0.00000       Uiso       1.00
        H5          H  0.0482729  0.4903837  0.5000030    0.00000       Uiso       1.00
        H1          H  0.3699726  0.5293357  0.5000030    0.00000       Uiso       1.00
        H2          H  0.3927167  0.4967973  0.5000030    0.00000       Uiso       1.00
        H3          H  0.4794077  0.5860234  0.5000030    0.00000       Uiso       1.00
        H4          H  0.4229458  0.4690504  0.5000030    0.00000       Uiso       1.00
        H5          H  0.5096171  0.5578901  0.5000030    0.00000       Uiso       1.00
        H1          H  0.4706650  0.8406376  0.5000030    0.00000       Uiso       1.00
        H2          H  0.5032035  0.8959202  0.5000030    0.00000       Uiso       1.00
        H3          H  0.4139774  0.8933850  0.5000030    0.00000       Uiso       1.00
        H4          H  0.5309504  0.9538962  0.5000030    0.00000       Uiso       1.00
        H5          H  0.4421107  0.9517278  0.5000030    0.00000       Uiso       1.00
        H1          H  0.8406376  0.3699726  0.5000030    0.00000       Uiso       1.00
        H2          H  0.8959202  0.3927167  0.5000030    0.00000       Uiso       1.00
        H3          H  0.8933850  0.4794076  0.5000030    0.00000       Uiso       1.00
        H4          H  0.9538962  0.4229459  0.5000030    0.00000       Uiso       1.00
        H5          H  0.9517279  0.5096171  0.5000030    0.00000       Uiso       1.00
        H1          H  0.6300282  0.4706651  0.5000030    0.00000       Uiso       1.00
        H2          H  0.6072841  0.5032035  0.5000030    0.00000       Uiso       1.00
        H3          H  0.5205932  0.4139774  0.5000030    0.00000       Uiso       1.00
        H4          H  0.5770550  0.5309504  0.5000030    0.00000       Uiso       1.00
        H5          H  0.4903837  0.4421108  0.5000030    0.00000       Uiso       1.00
        H1          H  0.5293357  0.1593632  0.5000030    0.00000       Uiso       1.00
        H2          H  0.4967973  0.1040806  0.5000030    0.00000       Uiso       1.00
        H3          H  0.5860234  0.1066158  0.5000030    0.00000       Uiso       1.00
        H4          H  0.4690505  0.0461046  0.5000030    0.00000       Uiso       1.00
        H5          H  0.5578901  0.0482729  0.5000030    0.00000       Uiso       1.00
       C43          C  0.3553439  0.6991671  0.5000030    0.00000       Uiso       1.00
       C43          C  0.3008337  0.6561777  0.5000030    0.00000       Uiso       1.00
       C43          C  0.3438231  0.6446568  0.5000030    0.00000       Uiso       1.00
       C43          C  0.6446568  0.3008337  0.5000030    0.00000       Uiso       1.00
       C43          C  0.6991671  0.3438231  0.5000030    0.00000       Uiso       1.00
       C43          C  0.6561777  0.3553439  0.5000030    0.00000       Uiso       1.00
       N13          N  0.3648747  0.6768488  0.5000030    0.00000       Uiso       1.00
       N13          N  0.3231519  0.6880267  0.5000030    0.00000       Uiso       1.00
       N13          N  0.3119742  0.6351261  0.5000030    0.00000       Uiso       1.00
       N13          N  0.6351261  0.3231519  0.5000030    0.00000       Uiso       1.00
       N13          N  0.6768488  0.3119741  0.5000030    0.00000       Uiso       1.00
       N13          N  0.6880267  0.3648747  0.5000030    0.00000       Uiso       1.00
        C1          C  0.3779585  0.7326472  0.5000030    0.00000       Uiso       1.00
        C2          C  0.2673536  0.6453121  0.5000030    0.00000       Uiso       1.00
        C3          C  0.3546886  0.6220422  0.5000030    0.00000       Uiso       1.00
        C4          C  0.2441492  0.6119696  0.5000030    0.00000       Uiso       1.00
        C5          C  0.3880312  0.6321803  0.5000030    0.00000       Uiso       1.00
        C6          C  0.3678205  0.7558516  0.5000030    0.00000       Uiso       1.00
        C7          C  0.2108815  0.6011245  0.5000030    0.00000       Uiso       1.00
        C8          C  0.3988763  0.6097578  0.5000030    0.00000       Uiso       1.00
        C9          C  0.3902431  0.7891193  0.5000030    0.00000       Uiso       1.00
       C10          C  0.1994088  0.6231974  0.5000030    0.00000       Uiso       1.00
       C11          C  0.3768034  0.5762122  0.5000030    0.00000       Uiso       1.00
       C12          C  0.4237886  0.8005921  0.5000030    0.00000       Uiso       1.00
       C13          C  0.2224160  0.6564886  0.5000030    0.00000       Uiso       1.00
       C14          C  0.3435122  0.5659282  0.5000030    0.00000       Uiso       1.00
       C15          C  0.4340726  0.7775847  0.5000030    0.00000       Uiso       1.00
       C16          C  0.2556721  0.6672945  0.5000030    0.00000       Uiso       1.00
       C17          C  0.3327063  0.5883784  0.5000030    0.00000       Uiso       1.00
       C18          C  0.4116223  0.7443287  0.5000030    0.00000       Uiso       1.00
        C1          C  0.6220423  0.2673536  0.5000030    0.00000       Uiso       1.00
        C2          C  0.7326472  0.3546887  0.5000030    0.00000       Uiso       1.00
        C3          C  0.6453121  0.3779585  0.5000030    0.00000       Uiso       1.00
        C4          C  0.7558516  0.3880311  0.5000030    0.00000       Uiso       1.00
        C5          C  0.6119696  0.3678205  0.5000030    0.00000       Uiso       1.00
        C6          C  0.6321803  0.2441492  0.5000030    0.00000       Uiso       1.00
        C7          C  0.7891193  0.3988763  0.5000030    0.00000       Uiso       1.00
        C8          C  0.6011245  0.3902430  0.5000030    0.00000       Uiso       1.00
        C9          C  0.6097578  0.2108815  0.5000030    0.00000       Uiso       1.00
       C10          C  0.8005920  0.3768034  0.5000030    0.00000       Uiso       1.00
       C11          C  0.6231974  0.4237886  0.5000030    0.00000       Uiso       1.00
       C12          C  0.5762122  0.1994088  0.5000030    0.00000       Uiso       1.00
       C13          C  0.7775847  0.3435122  0.5000030    0.00000       Uiso       1.00
       C14          C  0.6564886  0.4340726  0.5000030    0.00000       Uiso       1.00
       C15          C  0.5659282  0.2224160  0.5000030    0.00000       Uiso       1.00
       C16          C  0.7443287  0.3327063  0.5000030    0.00000       Uiso       1.00
       C17          C  0.6672945  0.4116224  0.5000030    0.00000       Uiso       1.00
       C18          C  0.5883784  0.2556721  0.5000030    0.00000       Uiso       1.00
        H1          H  0.2512889  0.5950852  0.5000030    0.00000       Uiso       1.00
        H2          H  0.4049156  0.6562045  0.5000030    0.00000       Uiso       1.00
        H3          H  0.3437963  0.7487119  0.5000030    0.00000       Uiso       1.00
        H4          H  0.1950214  0.5768298  0.5000030    0.00000       Uiso       1.00
        H5          H  0.4231710  0.6181924  0.5000030    0.00000       Uiso       1.00
        H6          H  0.3818084  0.8049794  0.5000030    0.00000       Uiso       1.00
        H7          H  0.2151949  0.6733181  0.5000030    0.00000       Uiso       1.00
        H8          H  0.3266826  0.5418776  0.5000030    0.00000       Uiso       1.00
        H9          H  0.4581232  0.7848058  0.5000030    0.00000       Uiso       1.00
       H10          H  0.2713640  0.6916282  0.5000030    0.00000       Uiso       1.00
       H11          H  0.3083726  0.5797366  0.5000030    0.00000       Uiso       1.00
       H12          H  0.4202641  0.7286368  0.5000030    0.00000       Uiso       1.00
        H1          H  0.7487119  0.4049156  0.5000030    0.00000       Uiso       1.00
        H2          H  0.5950852  0.3437963  0.5000030    0.00000       Uiso       1.00
        H3          H  0.6562045  0.2512889  0.5000030    0.00000       Uiso       1.00
        H4          H  0.8049794  0.4231710  0.5000030    0.00000       Uiso       1.00
        H5          H  0.5768298  0.3818084  0.5000030    0.00000       Uiso       1.00
        H6          H  0.6181924  0.1950214  0.5000030    0.00000       Uiso       1.00
        H7          H  0.7848059  0.3266826  0.5000030    0.00000       Uiso       1.00
        H8          H  0.6733182  0.4581232  0.5000030    0.00000       Uiso       1.00
        H9          H  0.5418776  0.2151950  0.5000030    0.00000       Uiso       1.00
       H10          H  0.7286368  0.3083726  0.5000030    0.00000       Uiso       1.00
       H11          H  0.6916282  0.4202642  0.5000030    0.00000       Uiso       1.00
       H12          H  0.5797366  0.2713640  0.5000030    0.00000       Uiso       1.00
