data_crystal
 
_cell_length_a    41.01420
_cell_length_b    41.01420
_cell_length_c    41.01420
_cell_angle_alpha 90.00000
_cell_angle_beta  90.00000
_cell_angle_gamma 90.00000
 
_symmetry_space_group_name_Hall 'P 1'
_symmetry_space_group_name_H-M  'P 1'
 
loop_
_symmetry_equiv_pos_as_xyz
 'x,y,z' 
 
loop_
_atom_site_label
_atom_site_type_symbol
_atom_site_fract_x
_atom_site_fract_y
_atom_site_fract_z
_atom_site_charge
N          N       0.26164   0.33294   0.94055   0.0000000000
C          C       0.24169   0.31133   0.92874   0.0000000000
C          C       0.25548   0.35301   0.96952   0.0000000000
B          B       0.27568   0.23426   0.81300   0.0000000000
O          O       0.29416   0.80436   0.74408   0.0000000000
C          C       0.62518   0.47531   0.21425   0.0000000000
H          H       0.64066   0.47901   0.19227   0.0000000000
H          H       0.61006   0.45325   0.20976   0.0000000000
H          H       0.93477   0.52155   0.74652   0.0000000000
C          C       0.25037   0.70777   0.60050   0.0000000000
C          C       0.26618   0.74511   0.65609   0.0000000000
C          C       0.22967   0.73289   0.61093   0.0000000000
C          C       0.23744   0.75155   0.63841   0.0000000000
C          C       0.27901   0.70134   0.61816   0.0000000000
C          C       0.28677   0.71978   0.64573   0.0000000000
H          H       0.21847   0.30683   0.94050   0.0000000000
H          H       0.20745   0.73820   0.59767   0.0000000000
F          F       0.21670   0.77566   0.64757   0.0000000000
H          H       0.29542   0.68204   0.61073   0.0000000000
H          H       0.30905   0.71421   0.65879   0.0000000000
N          N       0.76164   0.83294   0.44055   0.0000000000
C          C       0.74169   0.81133   0.42874   0.0000000000
C          C       0.75548   0.85301   0.46952   0.0000000000
B          B       0.77568   0.73426   0.31300   0.0000000000
O          O       0.79416   0.30436   0.24408   0.0000000000
C          C       0.12518   0.97531   0.71425   0.0000000000
H          H       0.14066   0.97901   0.69227   0.0000000000
H          H       0.11006   0.95325   0.70976   0.0000000000
H          H       0.43477   0.02155   0.24652   0.0000000000
C          C       0.75037   0.20777   0.10050   0.0000000000
C          C       0.76618   0.24511   0.15609   0.0000000000
C          C       0.72967   0.23289   0.11093   0.0000000000
C          C       0.73744   0.25155   0.13841   0.0000000000
C          C       0.77901   0.20134   0.11816   0.0000000000
C          C       0.78677   0.21978   0.14573   0.0000000000
H          H       0.71847   0.80683   0.44050   0.0000000000
H          H       0.70745   0.23820   0.09767   0.0000000000
F          F       0.71670   0.27566   0.14757   0.0000000000
H          H       0.79542   0.18204   0.11073   0.0000000000
H          H       0.80905   0.21421   0.15879   0.0000000000
N          N       0.23836   0.66706   0.44055   0.0000000000
C          C       0.25831   0.68867   0.42874   0.0000000000
C          C       0.24452   0.64699   0.46952   0.0000000000
B          B       0.22432   0.76574   0.31300   0.0000000000
O          O       0.20584   0.19564   0.24408   0.0000000000
C          C       0.87482   0.52469   0.71425   0.0000000000
H          H       0.85934   0.52099   0.69227   0.0000000000
H          H       0.88994   0.54675   0.70976   0.0000000000
H          H       0.56523   0.47845   0.24652   0.0000000000
C          C       0.24963   0.29223   0.10050   0.0000000000
C          C       0.23382   0.25489   0.15609   0.0000000000
C          C       0.27033   0.26711   0.11093   0.0000000000
C          C       0.26256   0.24845   0.13841   0.0000000000
C          C       0.22099   0.29866   0.11816   0.0000000000
C          C       0.21323   0.28022   0.14573   0.0000000000
H          H       0.28153   0.69317   0.44050   0.0000000000
H          H       0.29255   0.26180   0.09767   0.0000000000
F          F       0.28330   0.22434   0.14757   0.0000000000
H          H       0.20458   0.31796   0.11073   0.0000000000
H          H       0.19095   0.28579   0.15879   0.0000000000
N          N       0.73836   0.16706   0.94055   0.0000000000
C          C       0.75831   0.18867   0.92874   0.0000000000
C          C       0.74452   0.14699   0.96952   0.0000000000
B          B       0.72432   0.26574   0.81300   0.0000000000
O          O       0.70584   0.69564   0.74408   0.0000000000
C          C       0.37482   0.02469   0.21425   0.0000000000
H          H       0.35934   0.02099   0.19227   0.0000000000
H          H       0.38994   0.04675   0.20976   0.0000000000
H          H       0.06523   0.97845   0.74652   0.0000000000
C          C       0.74963   0.79223   0.60050   0.0000000000
C          C       0.73382   0.75489   0.65609   0.0000000000
C          C       0.77033   0.76711   0.61093   0.0000000000
C          C       0.76256   0.74845   0.63841   0.0000000000
C          C       0.72099   0.79866   0.61816   0.0000000000
C          C       0.71323   0.78022   0.64573   0.0000000000
H          H       0.78153   0.19317   0.94050   0.0000000000
H          H       0.79255   0.76180   0.59767   0.0000000000
F          F       0.78330   0.72434   0.64757   0.0000000000
H          H       0.70458   0.81796   0.61073   0.0000000000
H          H       0.69095   0.78579   0.65879   0.0000000000
N          N       0.73836   0.83294   0.55945   0.0000000000
C          C       0.75831   0.81133   0.57126   0.0000000000
C          C       0.74452   0.85301   0.53048   0.0000000000
B          B       0.72432   0.73426   0.68700   0.0000000000
O          O       0.70584   0.30436   0.75592   0.0000000000
C          C       0.37482   0.97531   0.28575   0.0000000000
H          H       0.35934   0.97901   0.30773   0.0000000000
H          H       0.38994   0.95325   0.29024   0.0000000000
H          H       0.06523   0.02155   0.75348   0.0000000000
C          C       0.74963   0.20777   0.89950   0.0000000000
C          C       0.73382   0.24511   0.84391   0.0000000000
C          C       0.77033   0.23289   0.88907   0.0000000000
C          C       0.76256   0.25155   0.86159   0.0000000000
C          C       0.72099   0.20134   0.88184   0.0000000000
C          C       0.71323   0.21978   0.85427   0.0000000000
H          H       0.78153   0.80683   0.55950   0.0000000000
H          H       0.79255   0.23820   0.90233   0.0000000000
F          F       0.78330   0.27566   0.85243   0.0000000000
H          H       0.70458   0.18204   0.88927   0.0000000000
H          H       0.69095   0.21421   0.84121   0.0000000000
N          N       0.23836   0.33294   0.05945   0.0000000000
C          C       0.25831   0.31133   0.07126   0.0000000000
C          C       0.24452   0.35301   0.03048   0.0000000000
B          B       0.22432   0.23426   0.18700   0.0000000000
O          O       0.20584   0.80436   0.25592   0.0000000000
C          C       0.87482   0.47531   0.78575   0.0000000000
H          H       0.85934   0.47901   0.80773   0.0000000000
H          H       0.88994   0.45325   0.79024   0.0000000000
H          H       0.56523   0.52155   0.25348   0.0000000000
C          C       0.24963   0.70777   0.39950   0.0000000000
C          C       0.23382   0.74511   0.34391   0.0000000000
C          C       0.27033   0.73289   0.38907   0.0000000000
C          C       0.26256   0.75155   0.36159   0.0000000000
C          C       0.22099   0.70134   0.38184   0.0000000000
C          C       0.21323   0.71978   0.35427   0.0000000000
H          H       0.28153   0.30683   0.05950   0.0000000000
H          H       0.29255   0.73820   0.40233   0.0000000000
F          F       0.28330   0.77566   0.35243   0.0000000000
H          H       0.20458   0.68204   0.38927   0.0000000000
H          H       0.19095   0.71421   0.34121   0.0000000000
N          N       0.76164   0.16706   0.05945   0.0000000000
C          C       0.74169   0.18867   0.07126   0.0000000000
C          C       0.75548   0.14699   0.03048   0.0000000000
B          B       0.77568   0.26574   0.18700   0.0000000000
O          O       0.79416   0.69564   0.25592   0.0000000000
C          C       0.12518   0.02469   0.78575   0.0000000000
H          H       0.14066   0.02099   0.80773   0.0000000000
H          H       0.11006   0.04675   0.79024   0.0000000000
H          H       0.43477   0.97845   0.25348   0.0000000000
C          C       0.75037   0.79223   0.39950   0.0000000000
C          C       0.76618   0.75489   0.34391   0.0000000000
C          C       0.72967   0.76711   0.38907   0.0000000000
C          C       0.73744   0.74845   0.36159   0.0000000000
C          C       0.77901   0.79866   0.38184   0.0000000000
C          C       0.78677   0.78022   0.35427   0.0000000000
H          H       0.71847   0.19317   0.05950   0.0000000000
H          H       0.70745   0.76180   0.40233   0.0000000000
F          F       0.71670   0.72434   0.35243   0.0000000000
H          H       0.79542   0.81796   0.38927   0.0000000000
H          H       0.80905   0.78579   0.34121   0.0000000000
N          N       0.26164   0.66706   0.55945   0.0000000000
C          C       0.24169   0.68867   0.57126   0.0000000000
C          C       0.25548   0.64699   0.53048   0.0000000000
B          B       0.27568   0.76574   0.68700   0.0000000000
O          O       0.29416   0.19564   0.75592   0.0000000000
C          C       0.62518   0.52469   0.28575   0.0000000000
H          H       0.64066   0.52099   0.30773   0.0000000000
H          H       0.61006   0.54675   0.29024   0.0000000000
H          H       0.93477   0.47845   0.75348   0.0000000000
C          C       0.25037   0.29223   0.89950   0.0000000000
C          C       0.26618   0.25489   0.84391   0.0000000000
C          C       0.22967   0.26711   0.88907   0.0000000000
C          C       0.23744   0.24845   0.86159   0.0000000000
C          C       0.27901   0.29866   0.88184   0.0000000000
C          C       0.28677   0.28022   0.85427   0.0000000000
H          H       0.21847   0.69317   0.55950   0.0000000000
H          H       0.20745   0.26180   0.90233   0.0000000000
F          F       0.21670   0.22434   0.85243   0.0000000000
H          H       0.29542   0.31796   0.88927   0.0000000000
H          H       0.30905   0.28579   0.84121   0.0000000000
N          N       0.94055   0.26164   0.33294   0.0000000000
C          C       0.92874   0.24169   0.31133   0.0000000000
C          C       0.96952   0.25548   0.35301   0.0000000000
B          B       0.81300   0.27568   0.23426   0.0000000000
O          O       0.74408   0.29416   0.80436   0.0000000000
C          C       0.21425   0.62518   0.47531   0.0000000000
H          H       0.19227   0.64066   0.47901   0.0000000000
H          H       0.20976   0.61006   0.45325   0.0000000000
H          H       0.74652   0.93477   0.52155   0.0000000000
C          C       0.60050   0.25037   0.70777   0.0000000000
C          C       0.65609   0.26618   0.74511   0.0000000000
C          C       0.61093   0.22967   0.73289   0.0000000000
C          C       0.63841   0.23744   0.75155   0.0000000000
C          C       0.61816   0.27901   0.70134   0.0000000000
C          C       0.64573   0.28677   0.71978   0.0000000000
H          H       0.94050   0.21847   0.30683   0.0000000000
H          H       0.59767   0.20745   0.73820   0.0000000000
F          F       0.64757   0.21670   0.77566   0.0000000000
H          H       0.61073   0.29542   0.68204   0.0000000000
H          H       0.65879   0.30905   0.71421   0.0000000000
N          N       0.44055   0.76164   0.83294   0.0000000000
C          C       0.42874   0.74169   0.81133   0.0000000000
C          C       0.46952   0.75548   0.85301   0.0000000000
B          B       0.31300   0.77568   0.73426   0.0000000000
O          O       0.24408   0.79416   0.30436   0.0000000000
C          C       0.71425   0.12518   0.97531   0.0000000000
H          H       0.69227   0.14066   0.97901   0.0000000000
H          H       0.70976   0.11006   0.95325   0.0000000000
H          H       0.24652   0.43477   0.02155   0.0000000000
C          C       0.10050   0.75037   0.20777   0.0000000000
C          C       0.15609   0.76618   0.24511   0.0000000000
C          C       0.11093   0.72967   0.23289   0.0000000000
C          C       0.13841   0.73744   0.25155   0.0000000000
C          C       0.11816   0.77901   0.20134   0.0000000000
C          C       0.14573   0.78677   0.21978   0.0000000000
H          H       0.44050   0.71847   0.80683   0.0000000000
H          H       0.09767   0.70745   0.23820   0.0000000000
F          F       0.14757   0.71670   0.27566   0.0000000000
H          H       0.11073   0.79542   0.18204   0.0000000000
H          H       0.15879   0.80905   0.21421   0.0000000000
N          N       0.44055   0.23836   0.66706   0.0000000000
C          C       0.42874   0.25831   0.68867   0.0000000000
C          C       0.46952   0.24452   0.64699   0.0000000000
B          B       0.31300   0.22432   0.76574   0.0000000000
O          O       0.24408   0.20584   0.19564   0.0000000000
C          C       0.71425   0.87482   0.52469   0.0000000000
H          H       0.69227   0.85934   0.52099   0.0000000000
H          H       0.70976   0.88994   0.54675   0.0000000000
H          H       0.24652   0.56523   0.47845   0.0000000000
C          C       0.10050   0.24963   0.29223   0.0000000000
C          C       0.15609   0.23382   0.25489   0.0000000000
C          C       0.11093   0.27033   0.26711   0.0000000000
C          C       0.13841   0.26256   0.24845   0.0000000000
C          C       0.11816   0.22099   0.29866   0.0000000000
C          C       0.14573   0.21323   0.28022   0.0000000000
H          H       0.44050   0.28153   0.69317   0.0000000000
H          H       0.09767   0.29255   0.26180   0.0000000000
F          F       0.14757   0.28330   0.22434   0.0000000000
H          H       0.11073   0.20458   0.31796   0.0000000000
H          H       0.15879   0.19095   0.28579   0.0000000000
N          N       0.94055   0.73836   0.16706   0.0000000000
C          C       0.92874   0.75831   0.18867   0.0000000000
C          C       0.96952   0.74452   0.14699   0.0000000000
B          B       0.81300   0.72432   0.26574   0.0000000000
O          O       0.74408   0.70584   0.69564   0.0000000000
C          C       0.21425   0.37482   0.02469   0.0000000000
H          H       0.19227   0.35934   0.02099   0.0000000000
H          H       0.20976   0.38994   0.04675   0.0000000000
H          H       0.74652   0.06523   0.97845   0.0000000000
C          C       0.60050   0.74963   0.79223   0.0000000000
C          C       0.65609   0.73382   0.75489   0.0000000000
C          C       0.61093   0.77033   0.76711   0.0000000000
C          C       0.63841   0.76256   0.74845   0.0000000000
C          C       0.61816   0.72099   0.79866   0.0000000000
C          C       0.64573   0.71323   0.78022   0.0000000000
H          H       0.94050   0.78153   0.19317   0.0000000000
H          H       0.59767   0.79255   0.76180   0.0000000000
F          F       0.64757   0.78330   0.72434   0.0000000000
H          H       0.61073   0.70458   0.81796   0.0000000000
H          H       0.65879   0.69095   0.78579   0.0000000000
N          N       0.55945   0.73836   0.83294   0.0000000000
C          C       0.57126   0.75831   0.81133   0.0000000000
C          C       0.53048   0.74452   0.85301   0.0000000000
B          B       0.68700   0.72432   0.73426   0.0000000000
O          O       0.75592   0.70584   0.30436   0.0000000000
C          C       0.28575   0.37482   0.97531   0.0000000000
H          H       0.30773   0.35934   0.97901   0.0000000000
H          H       0.29024   0.38994   0.95325   0.0000000000
H          H       0.75348   0.06523   0.02155   0.0000000000
C          C       0.89950   0.74963   0.20777   0.0000000000
C          C       0.84391   0.73382   0.24511   0.0000000000
C          C       0.88907   0.77033   0.23289   0.0000000000
C          C       0.86159   0.76256   0.25155   0.0000000000
C          C       0.88184   0.72099   0.20134   0.0000000000
C          C       0.85427   0.71323   0.21978   0.0000000000
H          H       0.55950   0.78153   0.80683   0.0000000000
H          H       0.90233   0.79255   0.23820   0.0000000000
F          F       0.85243   0.78330   0.27566   0.0000000000
H          H       0.88927   0.70458   0.18204   0.0000000000
H          H       0.84121   0.69095   0.21421   0.0000000000
N          N       0.05945   0.23836   0.33294   0.0000000000
C          C       0.07126   0.25831   0.31133   0.0000000000
C          C       0.03048   0.24452   0.35301   0.0000000000
B          B       0.18700   0.22432   0.23426   0.0000000000
O          O       0.25592   0.20584   0.80436   0.0000000000
C          C       0.78575   0.87482   0.47531   0.0000000000
H          H       0.80773   0.85934   0.47901   0.0000000000
H          H       0.79024   0.88994   0.45325   0.0000000000
H          H       0.25348   0.56523   0.52155   0.0000000000
C          C       0.39950   0.24963   0.70777   0.0000000000
C          C       0.34391   0.23382   0.74511   0.0000000000
C          C       0.38907   0.27033   0.73289   0.0000000000
C          C       0.36159   0.26256   0.75155   0.0000000000
C          C       0.38184   0.22099   0.70134   0.0000000000
C          C       0.35427   0.21323   0.71978   0.0000000000
H          H       0.05950   0.28153   0.30683   0.0000000000
H          H       0.40233   0.29255   0.73820   0.0000000000
F          F       0.35243   0.28330   0.77566   0.0000000000
H          H       0.38927   0.20458   0.68204   0.0000000000
H          H       0.34121   0.19095   0.71421   0.0000000000
N          N       0.05945   0.76164   0.16706   0.0000000000
C          C       0.07126   0.74169   0.18867   0.0000000000
C          C       0.03048   0.75548   0.14699   0.0000000000
B          B       0.18700   0.77568   0.26574   0.0000000000
O          O       0.25592   0.79416   0.69564   0.0000000000
C          C       0.78575   0.12518   0.02469   0.0000000000
H          H       0.80773   0.14066   0.02099   0.0000000000
H          H       0.79024   0.11006   0.04675   0.0000000000
H          H       0.25348   0.43477   0.97845   0.0000000000
C          C       0.39950   0.75037   0.79223   0.0000000000
C          C       0.34391   0.76618   0.75489   0.0000000000
C          C       0.38907   0.72967   0.76711   0.0000000000
C          C       0.36159   0.73744   0.74845   0.0000000000
C          C       0.38184   0.77901   0.79866   0.0000000000
C          C       0.35427   0.78677   0.78022   0.0000000000
H          H       0.05950   0.71847   0.19317   0.0000000000
H          H       0.40233   0.70745   0.76180   0.0000000000
F          F       0.35243   0.71670   0.72434   0.0000000000
H          H       0.38927   0.79542   0.81796   0.0000000000
H          H       0.34121   0.80905   0.78579   0.0000000000
N          N       0.55945   0.26164   0.66706   0.0000000000
C          C       0.57126   0.24169   0.68867   0.0000000000
C          C       0.53048   0.25548   0.64699   0.0000000000
B          B       0.68700   0.27568   0.76574   0.0000000000
O          O       0.75592   0.29416   0.19564   0.0000000000
C          C       0.28575   0.62518   0.52469   0.0000000000
H          H       0.30773   0.64066   0.52099   0.0000000000
H          H       0.29024   0.61006   0.54675   0.0000000000
H          H       0.75348   0.93477   0.47845   0.0000000000
C          C       0.89950   0.25037   0.29223   0.0000000000
C          C       0.84391   0.26618   0.25489   0.0000000000
C          C       0.88907   0.22967   0.26711   0.0000000000
C          C       0.86159   0.23744   0.24845   0.0000000000
C          C       0.88184   0.27901   0.29866   0.0000000000
C          C       0.85427   0.28677   0.28022   0.0000000000
H          H       0.55950   0.21847   0.69317   0.0000000000
H          H       0.90233   0.20745   0.26180   0.0000000000
F          F       0.85243   0.21670   0.22434   0.0000000000
H          H       0.88927   0.29542   0.31796   0.0000000000
H          H       0.84121   0.30905   0.28579   0.0000000000
N          N       0.33294   0.94055   0.26164   0.0000000000
C          C       0.31133   0.92874   0.24169   0.0000000000
C          C       0.35301   0.96952   0.25548   0.0000000000
B          B       0.23426   0.81300   0.27568   0.0000000000
O          O       0.80436   0.74408   0.29416   0.0000000000
C          C       0.47531   0.21425   0.62518   0.0000000000
H          H       0.47901   0.19227   0.64066   0.0000000000
H          H       0.45325   0.20976   0.61006   0.0000000000
H          H       0.52155   0.74652   0.93477   0.0000000000
C          C       0.70777   0.60050   0.25037   0.0000000000
C          C       0.74511   0.65609   0.26618   0.0000000000
C          C       0.73289   0.61093   0.22967   0.0000000000
C          C       0.75155   0.63841   0.23744   0.0000000000
C          C       0.70134   0.61816   0.27901   0.0000000000
C          C       0.71978   0.64573   0.28677   0.0000000000
H          H       0.30683   0.94050   0.21847   0.0000000000
H          H       0.73820   0.59767   0.20745   0.0000000000
F          F       0.77566   0.64757   0.21670   0.0000000000
H          H       0.68204   0.61073   0.29542   0.0000000000
H          H       0.71421   0.65879   0.30905   0.0000000000
N          N       0.83294   0.44055   0.76164   0.0000000000
C          C       0.81133   0.42874   0.74169   0.0000000000
C          C       0.85301   0.46952   0.75548   0.0000000000
B          B       0.73426   0.31300   0.77568   0.0000000000
O          O       0.30436   0.24408   0.79416   0.0000000000
C          C       0.97531   0.71425   0.12518   0.0000000000
H          H       0.97901   0.69227   0.14066   0.0000000000
H          H       0.95325   0.70976   0.11006   0.0000000000
H          H       0.02155   0.24652   0.43477   0.0000000000
C          C       0.20777   0.10050   0.75037   0.0000000000
C          C       0.24511   0.15609   0.76618   0.0000000000
C          C       0.23289   0.11093   0.72967   0.0000000000
C          C       0.25155   0.13841   0.73744   0.0000000000
C          C       0.20134   0.11816   0.77901   0.0000000000
C          C       0.21978   0.14573   0.78677   0.0000000000
H          H       0.80683   0.44050   0.71847   0.0000000000
H          H       0.23820   0.09767   0.70745   0.0000000000
F          F       0.27566   0.14757   0.71670   0.0000000000
H          H       0.18204   0.11073   0.79542   0.0000000000
H          H       0.21421   0.15879   0.80905   0.0000000000
N          N       0.66706   0.44055   0.23836   0.0000000000
C          C       0.68867   0.42874   0.25831   0.0000000000
C          C       0.64699   0.46952   0.24452   0.0000000000
B          B       0.76574   0.31300   0.22432   0.0000000000
O          O       0.19564   0.24408   0.20584   0.0000000000
C          C       0.52469   0.71425   0.87482   0.0000000000
H          H       0.52099   0.69227   0.85934   0.0000000000
H          H       0.54675   0.70976   0.88994   0.0000000000
H          H       0.47845   0.24652   0.56523   0.0000000000
C          C       0.29223   0.10050   0.24963   0.0000000000
C          C       0.25489   0.15609   0.23382   0.0000000000
C          C       0.26711   0.11093   0.27033   0.0000000000
C          C       0.24845   0.13841   0.26256   0.0000000000
C          C       0.29866   0.11816   0.22099   0.0000000000
C          C       0.28022   0.14573   0.21323   0.0000000000
H          H       0.69317   0.44050   0.28153   0.0000000000
H          H       0.26180   0.09767   0.29255   0.0000000000
F          F       0.22434   0.14757   0.28330   0.0000000000
H          H       0.31796   0.11073   0.20458   0.0000000000
H          H       0.28579   0.15879   0.19095   0.0000000000
N          N       0.16706   0.94055   0.73836   0.0000000000
C          C       0.18867   0.92874   0.75831   0.0000000000
C          C       0.14699   0.96952   0.74452   0.0000000000
B          B       0.26574   0.81300   0.72432   0.0000000000
O          O       0.69564   0.74408   0.70584   0.0000000000
C          C       0.02469   0.21425   0.37482   0.0000000000
H          H       0.02099   0.19227   0.35934   0.0000000000
H          H       0.04675   0.20976   0.38994   0.0000000000
H          H       0.97845   0.74652   0.06523   0.0000000000
C          C       0.79223   0.60050   0.74963   0.0000000000
C          C       0.75489   0.65609   0.73382   0.0000000000
C          C       0.76711   0.61093   0.77033   0.0000000000
C          C       0.74845   0.63841   0.76256   0.0000000000
C          C       0.79866   0.61816   0.72099   0.0000000000
C          C       0.78022   0.64573   0.71323   0.0000000000
H          H       0.19317   0.94050   0.78153   0.0000000000
H          H       0.76180   0.59767   0.79255   0.0000000000
F          F       0.72434   0.64757   0.78330   0.0000000000
H          H       0.81796   0.61073   0.70458   0.0000000000
H          H       0.78579   0.65879   0.69095   0.0000000000
N          N       0.83294   0.55945   0.73836   0.0000000000
C          C       0.81133   0.57126   0.75831   0.0000000000
C          C       0.85301   0.53048   0.74452   0.0000000000
B          B       0.73426   0.68700   0.72432   0.0000000000
O          O       0.30436   0.75592   0.70584   0.0000000000
C          C       0.97531   0.28575   0.37482   0.0000000000
H          H       0.97901   0.30773   0.35934   0.0000000000
H          H       0.95325   0.29024   0.38994   0.0000000000
H          H       0.02155   0.75348   0.06523   0.0000000000
C          C       0.20777   0.89950   0.74963   0.0000000000
C          C       0.24511   0.84391   0.73382   0.0000000000
C          C       0.23289   0.88907   0.77033   0.0000000000
C          C       0.25155   0.86159   0.76256   0.0000000000
C          C       0.20134   0.88184   0.72099   0.0000000000
C          C       0.21978   0.85427   0.71323   0.0000000000
H          H       0.80683   0.55950   0.78153   0.0000000000
H          H       0.23820   0.90233   0.79255   0.0000000000
F          F       0.27566   0.85243   0.78330   0.0000000000
H          H       0.18204   0.88927   0.70458   0.0000000000
H          H       0.21421   0.84121   0.69095   0.0000000000
N          N       0.33294   0.05945   0.23836   0.0000000000
C          C       0.31133   0.07126   0.25831   0.0000000000
C          C       0.35301   0.03048   0.24452   0.0000000000
B          B       0.23426   0.18700   0.22432   0.0000000000
O          O       0.80436   0.25592   0.20584   0.0000000000
C          C       0.47531   0.78575   0.87482   0.0000000000
H          H       0.47901   0.80773   0.85934   0.0000000000
H          H       0.45325   0.79024   0.88994   0.0000000000
H          H       0.52155   0.25348   0.56523   0.0000000000
C          C       0.70777   0.39950   0.24963   0.0000000000
C          C       0.74511   0.34391   0.23382   0.0000000000
C          C       0.73289   0.38907   0.27033   0.0000000000
C          C       0.75155   0.36159   0.26256   0.0000000000
C          C       0.70134   0.38184   0.22099   0.0000000000
C          C       0.71978   0.35427   0.21323   0.0000000000
H          H       0.30683   0.05950   0.28153   0.0000000000
H          H       0.73820   0.40233   0.29255   0.0000000000
F          F       0.77566   0.35243   0.28330   0.0000000000
H          H       0.68204   0.38927   0.20458   0.0000000000
H          H       0.71421   0.34121   0.19095   0.0000000000
N          N       0.16706   0.05945   0.76164   0.0000000000
C          C       0.18867   0.07126   0.74169   0.0000000000
C          C       0.14699   0.03048   0.75548   0.0000000000
B          B       0.26574   0.18700   0.77568   0.0000000000
O          O       0.69564   0.25592   0.79416   0.0000000000
C          C       0.02469   0.78575   0.12518   0.0000000000
H          H       0.02099   0.80773   0.14066   0.0000000000
H          H       0.04675   0.79024   0.11006   0.0000000000
H          H       0.97845   0.25348   0.43477   0.0000000000
C          C       0.79223   0.39950   0.75037   0.0000000000
C          C       0.75489   0.34391   0.76618   0.0000000000
C          C       0.76711   0.38907   0.72967   0.0000000000
C          C       0.74845   0.36159   0.73744   0.0000000000
C          C       0.79866   0.38184   0.77901   0.0000000000
C          C       0.78022   0.35427   0.78677   0.0000000000
H          H       0.19317   0.05950   0.71847   0.0000000000
H          H       0.76180   0.40233   0.70745   0.0000000000
F          F       0.72434   0.35243   0.71670   0.0000000000
H          H       0.81796   0.38927   0.79542   0.0000000000
H          H       0.78579   0.34121   0.80905   0.0000000000
N          N       0.66706   0.55945   0.26164   0.0000000000
C          C       0.68867   0.57126   0.24169   0.0000000000
C          C       0.64699   0.53048   0.25548   0.0000000000
B          B       0.76574   0.68700   0.27568   0.0000000000
O          O       0.19564   0.75592   0.29416   0.0000000000
C          C       0.52469   0.28575   0.62518   0.0000000000
H          H       0.52099   0.30773   0.64066   0.0000000000
H          H       0.54675   0.29024   0.61006   0.0000000000
H          H       0.47845   0.75348   0.93477   0.0000000000
C          C       0.29223   0.89950   0.25037   0.0000000000
C          C       0.25489   0.84391   0.26618   0.0000000000
C          C       0.26711   0.88907   0.22967   0.0000000000
C          C       0.24845   0.86159   0.23744   0.0000000000
C          C       0.29866   0.88184   0.27901   0.0000000000
C          C       0.28022   0.85427   0.28677   0.0000000000
H          H       0.69317   0.55950   0.21847   0.0000000000
H          H       0.26180   0.90233   0.20745   0.0000000000
F          F       0.22434   0.85243   0.21670   0.0000000000
H          H       0.31796   0.88927   0.29542   0.0000000000
H          H       0.28579   0.84121   0.30905   0.0000000000
N          N       0.58294   0.51164   0.19055   0.0000000000
C          C       0.56133   0.49169   0.17874   0.0000000000
C          C       0.60301   0.50548   0.21952   0.0000000000
B          B       0.48426   0.52568   0.06300   0.0000000000
O          O       0.05436   0.54416   0.99408   0.0000000000
C          C       0.72531   0.87518   0.46425   0.0000000000
H          H       0.72901   0.89066   0.44227   0.0000000000
H          H       0.70325   0.86006   0.45976   0.0000000000
H          H       0.77155   0.18477   0.99652   0.0000000000
C          C       0.95777   0.50037   0.85050   0.0000000000
C          C       0.99511   0.51618   0.90609   0.0000000000
C          C       0.98289   0.47967   0.86093   0.0000000000
C          C       0.00155   0.48744   0.88841   0.0000000000
C          C       0.95134   0.52901   0.86816   0.0000000000
C          C       0.96978   0.53677   0.89573   0.0000000000
H          H       0.55683   0.46847   0.19050   0.0000000000
H          H       0.98820   0.45745   0.84767   0.0000000000
F          F       0.02566   0.46670   0.89757   0.0000000000
H          H       0.93204   0.54542   0.86073   0.0000000000
H          H       0.96421   0.55905   0.90879   0.0000000000
N          N       0.08294   0.01164   0.69055   0.0000000000
C          C       0.06133   0.99169   0.67874   0.0000000000
C          C       0.10301   0.00548   0.71952   0.0000000000
B          B       0.98426   0.02568   0.56300   0.0000000000
O          O       0.55436   0.04416   0.49408   0.0000000000
C          C       0.22531   0.37518   0.96425   0.0000000000
H          H       0.22901   0.39066   0.94227   0.0000000000
H          H       0.20325   0.36006   0.95976   0.0000000000
H          H       0.27155   0.68477   0.49652   0.0000000000
C          C       0.45777   0.00037   0.35050   0.0000000000
C          C       0.49511   0.01618   0.40609   0.0000000000
C          C       0.48289   0.97967   0.36093   0.0000000000
C          C       0.50155   0.98744   0.38841   0.0000000000
C          C       0.45134   0.02901   0.36816   0.0000000000
C          C       0.46978   0.03677   0.39573   0.0000000000
H          H       0.05683   0.96847   0.69050   0.0000000000
H          H       0.48820   0.95745   0.34767   0.0000000000
F          F       0.52566   0.96670   0.39757   0.0000000000
H          H       0.43204   0.04542   0.36073   0.0000000000
H          H       0.46421   0.05905   0.40879   0.0000000000
N          N       0.91706   0.48836   0.69055   0.0000000000
C          C       0.93867   0.50831   0.67874   0.0000000000
C          C       0.89699   0.49452   0.71952   0.0000000000
B          B       0.01574   0.47432   0.56300   0.0000000000
O          O       0.44564   0.45584   0.49408   0.0000000000
C          C       0.77469   0.12482   0.96425   0.0000000000
H          H       0.77099   0.10934   0.94227   0.0000000000
H          H       0.79675   0.13994   0.95976   0.0000000000
H          H       0.72845   0.81523   0.49652   0.0000000000
C          C       0.54223   0.49963   0.35050   0.0000000000
C          C       0.50489   0.48382   0.40609   0.0000000000
C          C       0.51711   0.52033   0.36093   0.0000000000
C          C       0.49845   0.51256   0.38841   0.0000000000
C          C       0.54866   0.47099   0.36816   0.0000000000
C          C       0.53022   0.46323   0.39573   0.0000000000
H          H       0.94317   0.53153   0.69050   0.0000000000
H          H       0.51180   0.54255   0.34767   0.0000000000
F          F       0.47434   0.53330   0.39757   0.0000000000
H          H       0.56796   0.45458   0.36073   0.0000000000
H          H       0.53579   0.44095   0.40879   0.0000000000
N          N       0.41706   0.98836   0.19055   0.0000000000
C          C       0.43867   0.00831   0.17874   0.0000000000
C          C       0.39699   0.99452   0.21952   0.0000000000
B          B       0.51574   0.97432   0.06300   0.0000000000
O          O       0.94564   0.95584   0.99408   0.0000000000
C          C       0.27469   0.62482   0.46425   0.0000000000
H          H       0.27099   0.60934   0.44227   0.0000000000
H          H       0.29675   0.63994   0.45976   0.0000000000
H          H       0.22845   0.31523   0.99652   0.0000000000
C          C       0.04223   0.99963   0.85050   0.0000000000
C          C       0.00489   0.98382   0.90609   0.0000000000
C          C       0.01711   0.02033   0.86093   0.0000000000
C          C       0.99845   0.01256   0.88841   0.0000000000
C          C       0.04866   0.97099   0.86816   0.0000000000
C          C       0.03022   0.96323   0.89573   0.0000000000
H          H       0.44317   0.03153   0.19050   0.0000000000
H          H       0.01180   0.04255   0.84767   0.0000000000
F          F       0.97434   0.03330   0.89757   0.0000000000
H          H       0.06796   0.95458   0.86073   0.0000000000
H          H       0.03579   0.94095   0.90879   0.0000000000
N          N       0.08294   0.98836   0.80945   0.0000000000
C          C       0.06133   0.00831   0.82126   0.0000000000
C          C       0.10301   0.99452   0.78048   0.0000000000
B          B       0.98426   0.97432   0.93700   0.0000000000
O          O       0.55436   0.95584   0.00592   0.0000000000
C          C       0.22531   0.62482   0.53575   0.0000000000
H          H       0.22901   0.60934   0.55773   0.0000000000
H          H       0.20325   0.63994   0.54024   0.0000000000
H          H       0.27155   0.31523   0.00348   0.0000000000
C          C       0.45777   0.99963   0.14950   0.0000000000
C          C       0.49511   0.98382   0.09391   0.0000000000
C          C       0.48289   0.02033   0.13907   0.0000000000
C          C       0.50155   0.01256   0.11159   0.0000000000
C          C       0.45134   0.97099   0.13184   0.0000000000
C          C       0.46978   0.96323   0.10427   0.0000000000
H          H       0.05683   0.03153   0.80950   0.0000000000
H          H       0.48820   0.04255   0.15233   0.0000000000
F          F       0.52566   0.03330   0.10243   0.0000000000
H          H       0.43204   0.95458   0.13927   0.0000000000
H          H       0.46421   0.94095   0.09121   0.0000000000
N          N       0.58294   0.48836   0.30945   0.0000000000
C          C       0.56133   0.50831   0.32126   0.0000000000
C          C       0.60301   0.49452   0.28048   0.0000000000
B          B       0.48426   0.47432   0.43700   0.0000000000
O          O       0.05436   0.45584   0.50592   0.0000000000
C          C       0.72531   0.12482   0.03575   0.0000000000
H          H       0.72901   0.10934   0.05773   0.0000000000
H          H       0.70325   0.13994   0.04024   0.0000000000
H          H       0.77155   0.81523   0.50348   0.0000000000
C          C       0.95777   0.49963   0.64950   0.0000000000
C          C       0.99511   0.48382   0.59391   0.0000000000
C          C       0.98289   0.52033   0.63907   0.0000000000
C          C       0.00155   0.51256   0.61159   0.0000000000
C          C       0.95134   0.47099   0.63184   0.0000000000
C          C       0.96978   0.46323   0.60427   0.0000000000
H          H       0.55683   0.53153   0.30950   0.0000000000
H          H       0.98820   0.54255   0.65233   0.0000000000
F          F       0.02566   0.53330   0.60243   0.0000000000
H          H       0.93204   0.45458   0.63927   0.0000000000
H          H       0.96421   0.44095   0.59121   0.0000000000
N          N       0.41706   0.01164   0.30945   0.0000000000
C          C       0.43867   0.99169   0.32126   0.0000000000
C          C       0.39699   0.00548   0.28048   0.0000000000
B          B       0.51574   0.02568   0.43700   0.0000000000
O          O       0.94564   0.04416   0.50592   0.0000000000
C          C       0.27469   0.37518   0.03575   0.0000000000
H          H       0.27099   0.39066   0.05773   0.0000000000
H          H       0.29675   0.36006   0.04024   0.0000000000
H          H       0.22845   0.68477   0.50348   0.0000000000
C          C       0.04223   0.00037   0.64950   0.0000000000
C          C       0.00489   0.01618   0.59391   0.0000000000
C          C       0.01711   0.97967   0.63907   0.0000000000
C          C       0.99845   0.98744   0.61159   0.0000000000
C          C       0.04866   0.02901   0.63184   0.0000000000
C          C       0.03022   0.03677   0.60427   0.0000000000
H          H       0.44317   0.96847   0.30950   0.0000000000
H          H       0.01180   0.95745   0.65233   0.0000000000
F          F       0.97434   0.96670   0.60243   0.0000000000
H          H       0.06796   0.04542   0.63927   0.0000000000
H          H       0.03579   0.05905   0.59121   0.0000000000
N          N       0.91706   0.51164   0.80945   0.0000000000
C          C       0.93867   0.49169   0.82126   0.0000000000
C          C       0.89699   0.50548   0.78048   0.0000000000
B          B       0.01574   0.52568   0.93700   0.0000000000
O          O       0.44564   0.54416   0.00592   0.0000000000
C          C       0.77469   0.87518   0.53575   0.0000000000
H          H       0.77099   0.89066   0.55773   0.0000000000
H          H       0.79675   0.86006   0.54024   0.0000000000
H          H       0.72845   0.18477   0.00348   0.0000000000
C          C       0.54223   0.50037   0.14950   0.0000000000
C          C       0.50489   0.51618   0.09391   0.0000000000
C          C       0.51711   0.47967   0.13907   0.0000000000
C          C       0.49845   0.48744   0.11159   0.0000000000
C          C       0.54866   0.52901   0.13184   0.0000000000
C          C       0.53022   0.53677   0.10427   0.0000000000
H          H       0.94317   0.46847   0.80950   0.0000000000
H          H       0.51180   0.45745   0.15233   0.0000000000
F          F       0.47434   0.46670   0.10243   0.0000000000
H          H       0.56796   0.54542   0.13927   0.0000000000
H          H       0.53579   0.55905   0.09121   0.0000000000
N          N       0.51164   0.19055   0.58294   0.0000000000
C          C       0.49169   0.17874   0.56133   0.0000000000
C          C       0.50548   0.21952   0.60301   0.0000000000
B          B       0.52568   0.06300   0.48426   0.0000000000
O          O       0.54416   0.99408   0.05436   0.0000000000
C          C       0.87518   0.46425   0.72531   0.0000000000
H          H       0.89066   0.44227   0.72901   0.0000000000
H          H       0.86006   0.45976   0.70325   0.0000000000
H          H       0.18477   0.99652   0.77155   0.0000000000
C          C       0.50037   0.85050   0.95777   0.0000000000
C          C       0.51618   0.90609   0.99511   0.0000000000
C          C       0.47967   0.86093   0.98289   0.0000000000
C          C       0.48744   0.88841   0.00155   0.0000000000
C          C       0.52901   0.86816   0.95134   0.0000000000
C          C       0.53677   0.89573   0.96978   0.0000000000
H          H       0.46847   0.19050   0.55683   0.0000000000
H          H       0.45745   0.84767   0.98820   0.0000000000
F          F       0.46670   0.89757   0.02566   0.0000000000
H          H       0.54542   0.86073   0.93204   0.0000000000
H          H       0.55905   0.90879   0.96421   0.0000000000
N          N       0.01164   0.69055   0.08294   0.0000000000
C          C       0.99169   0.67874   0.06133   0.0000000000
C          C       0.00548   0.71952   0.10301   0.0000000000
B          B       0.02568   0.56300   0.98426   0.0000000000
O          O       0.04416   0.49408   0.55436   0.0000000000
C          C       0.37518   0.96425   0.22531   0.0000000000
H          H       0.39066   0.94227   0.22901   0.0000000000
H          H       0.36006   0.95976   0.20325   0.0000000000
H          H       0.68477   0.49652   0.27155   0.0000000000
C          C       0.00037   0.35050   0.45777   0.0000000000
C          C       0.01618   0.40609   0.49511   0.0000000000
C          C       0.97967   0.36093   0.48289   0.0000000000
C          C       0.98744   0.38841   0.50155   0.0000000000
C          C       0.02901   0.36816   0.45134   0.0000000000
C          C       0.03677   0.39573   0.46978   0.0000000000
H          H       0.96847   0.69050   0.05683   0.0000000000
H          H       0.95745   0.34767   0.48820   0.0000000000
F          F       0.96670   0.39757   0.52566   0.0000000000
H          H       0.04542   0.36073   0.43204   0.0000000000
H          H       0.05905   0.40879   0.46421   0.0000000000
N          N       0.48836   0.69055   0.91706   0.0000000000
C          C       0.50831   0.67874   0.93867   0.0000000000
C          C       0.49452   0.71952   0.89699   0.0000000000
B          B       0.47432   0.56300   0.01574   0.0000000000
O          O       0.45584   0.49408   0.44564   0.0000000000
C          C       0.12482   0.96425   0.77469   0.0000000000
H          H       0.10934   0.94227   0.77099   0.0000000000
H          H       0.13994   0.95976   0.79675   0.0000000000
H          H       0.81523   0.49652   0.72845   0.0000000000
C          C       0.49963   0.35050   0.54223   0.0000000000
C          C       0.48382   0.40609   0.50489   0.0000000000
C          C       0.52033   0.36093   0.51711   0.0000000000
C          C       0.51256   0.38841   0.49845   0.0000000000
C          C       0.47099   0.36816   0.54866   0.0000000000
C          C       0.46323   0.39573   0.53022   0.0000000000
H          H       0.53153   0.69050   0.94317   0.0000000000
H          H       0.54255   0.34767   0.51180   0.0000000000
F          F       0.53330   0.39757   0.47434   0.0000000000
H          H       0.45458   0.36073   0.56796   0.0000000000
H          H       0.44095   0.40879   0.53579   0.0000000000
N          N       0.98836   0.19055   0.41706   0.0000000000
C          C       0.00831   0.17874   0.43867   0.0000000000
C          C       0.99452   0.21952   0.39699   0.0000000000
B          B       0.97432   0.06300   0.51574   0.0000000000
O          O       0.95584   0.99408   0.94564   0.0000000000
C          C       0.62482   0.46425   0.27469   0.0000000000
H          H       0.60934   0.44227   0.27099   0.0000000000
H          H       0.63994   0.45976   0.29675   0.0000000000
H          H       0.31523   0.99652   0.22845   0.0000000000
C          C       0.99963   0.85050   0.04223   0.0000000000
C          C       0.98382   0.90609   0.00489   0.0000000000
C          C       0.02033   0.86093   0.01711   0.0000000000
C          C       0.01256   0.88841   0.99845   0.0000000000
C          C       0.97099   0.86816   0.04866   0.0000000000
C          C       0.96323   0.89573   0.03022   0.0000000000
H          H       0.03153   0.19050   0.44317   0.0000000000
H          H       0.04255   0.84767   0.01180   0.0000000000
F          F       0.03330   0.89757   0.97434   0.0000000000
H          H       0.95458   0.86073   0.06796   0.0000000000
H          H       0.94095   0.90879   0.03579   0.0000000000
N          N       0.98836   0.80945   0.08294   0.0000000000
C          C       0.00831   0.82126   0.06133   0.0000000000
C          C       0.99452   0.78048   0.10301   0.0000000000
B          B       0.97432   0.93700   0.98426   0.0000000000
O          O       0.95584   0.00592   0.55436   0.0000000000
C          C       0.62482   0.53575   0.22531   0.0000000000
H          H       0.60934   0.55773   0.22901   0.0000000000
H          H       0.63994   0.54024   0.20325   0.0000000000
H          H       0.31523   0.00348   0.27155   0.0000000000
C          C       0.99963   0.14950   0.45777   0.0000000000
C          C       0.98382   0.09391   0.49511   0.0000000000
C          C       0.02033   0.13907   0.48289   0.0000000000
C          C       0.01256   0.11159   0.50155   0.0000000000
C          C       0.97099   0.13184   0.45134   0.0000000000
C          C       0.96323   0.10427   0.46978   0.0000000000
H          H       0.03153   0.80950   0.05683   0.0000000000
H          H       0.04255   0.15233   0.48820   0.0000000000
F          F       0.03330   0.10243   0.52566   0.0000000000
H          H       0.95458   0.13927   0.43204   0.0000000000
H          H       0.94095   0.09121   0.46421   0.0000000000
N          N       0.48836   0.30945   0.58294   0.0000000000
C          C       0.50831   0.32126   0.56133   0.0000000000
C          C       0.49452   0.28048   0.60301   0.0000000000
B          B       0.47432   0.43700   0.48426   0.0000000000
O          O       0.45584   0.50592   0.05436   0.0000000000
C          C       0.12482   0.03575   0.72531   0.0000000000
H          H       0.10934   0.05773   0.72901   0.0000000000
H          H       0.13994   0.04024   0.70325   0.0000000000
H          H       0.81523   0.50348   0.77155   0.0000000000
C          C       0.49963   0.64950   0.95777   0.0000000000
C          C       0.48382   0.59391   0.99511   0.0000000000
C          C       0.52033   0.63907   0.98289   0.0000000000
C          C       0.51256   0.61159   0.00155   0.0000000000
C          C       0.47099   0.63184   0.95134   0.0000000000
C          C       0.46323   0.60427   0.96978   0.0000000000
H          H       0.53153   0.30950   0.55683   0.0000000000
H          H       0.54255   0.65233   0.98820   0.0000000000
F          F       0.53330   0.60243   0.02566   0.0000000000
H          H       0.45458   0.63927   0.93204   0.0000000000
H          H       0.44095   0.59121   0.96421   0.0000000000
N          N       0.01164   0.30945   0.41706   0.0000000000
C          C       0.99169   0.32126   0.43867   0.0000000000
C          C       0.00548   0.28048   0.39699   0.0000000000
B          B       0.02568   0.43700   0.51574   0.0000000000
O          O       0.04416   0.50592   0.94564   0.0000000000
C          C       0.37518   0.03575   0.27469   0.0000000000
H          H       0.39066   0.05773   0.27099   0.0000000000
H          H       0.36006   0.04024   0.29675   0.0000000000
H          H       0.68477   0.50348   0.22845   0.0000000000
C          C       0.00037   0.64950   0.04223   0.0000000000
C          C       0.01618   0.59391   0.00489   0.0000000000
C          C       0.97967   0.63907   0.01711   0.0000000000
C          C       0.98744   0.61159   0.99845   0.0000000000
C          C       0.02901   0.63184   0.04866   0.0000000000
C          C       0.03677   0.60427   0.03022   0.0000000000
H          H       0.96847   0.30950   0.44317   0.0000000000
H          H       0.95745   0.65233   0.01180   0.0000000000
F          F       0.96670   0.60243   0.97434   0.0000000000
H          H       0.04542   0.63927   0.06796   0.0000000000
H          H       0.05905   0.59121   0.03579   0.0000000000
N          N       0.51164   0.80945   0.91706   0.0000000000
C          C       0.49169   0.82126   0.93867   0.0000000000
C          C       0.50548   0.78048   0.89699   0.0000000000
B          B       0.52568   0.93700   0.01574   0.0000000000
O          O       0.54416   0.00592   0.44564   0.0000000000
C          C       0.87518   0.53575   0.77469   0.0000000000
H          H       0.89066   0.55773   0.77099   0.0000000000
H          H       0.86006   0.54024   0.79675   0.0000000000
H          H       0.18477   0.00348   0.72845   0.0000000000
C          C       0.50037   0.14950   0.54223   0.0000000000
C          C       0.51618   0.09391   0.50489   0.0000000000
C          C       0.47967   0.13907   0.51711   0.0000000000
C          C       0.48744   0.11159   0.49845   0.0000000000
C          C       0.52901   0.13184   0.54866   0.0000000000
C          C       0.53677   0.10427   0.53022   0.0000000000
H          H       0.46847   0.80950   0.94317   0.0000000000
H          H       0.45745   0.15233   0.51180   0.0000000000
F          F       0.46670   0.10243   0.47434   0.0000000000
H          H       0.54542   0.13927   0.56796   0.0000000000
H          H       0.55905   0.09121   0.53579   0.0000000000
N          N       0.19055   0.58294   0.51164   0.0000000000
C          C       0.17874   0.56133   0.49169   0.0000000000
C          C       0.21952   0.60301   0.50548   0.0000000000
B          B       0.06300   0.48426   0.52568   0.0000000000
O          O       0.99408   0.05436   0.54416   0.0000000000
C          C       0.46425   0.72531   0.87518   0.0000000000
H          H       0.44227   0.72901   0.89066   0.0000000000
H          H       0.45976   0.70325   0.86006   0.0000000000
H          H       0.99652   0.77155   0.18477   0.0000000000
C          C       0.85050   0.95777   0.50037   0.0000000000
C          C       0.90609   0.99511   0.51618   0.0000000000
C          C       0.86093   0.98289   0.47967   0.0000000000
C          C       0.88841   0.00155   0.48744   0.0000000000
C          C       0.86816   0.95134   0.52901   0.0000000000
C          C       0.89573   0.96978   0.53677   0.0000000000
H          H       0.19050   0.55683   0.46847   0.0000000000
H          H       0.84767   0.98820   0.45745   0.0000000000
F          F       0.89757   0.02566   0.46670   0.0000000000
H          H       0.86073   0.93204   0.54542   0.0000000000
H          H       0.90879   0.96421   0.55905   0.0000000000
N          N       0.69055   0.08294   0.01164   0.0000000000
C          C       0.67874   0.06133   0.99169   0.0000000000
C          C       0.71952   0.10301   0.00548   0.0000000000
B          B       0.56300   0.98426   0.02568   0.0000000000
O          O       0.49408   0.55436   0.04416   0.0000000000
C          C       0.96425   0.22531   0.37518   0.0000000000
H          H       0.94227   0.22901   0.39066   0.0000000000
H          H       0.95976   0.20325   0.36006   0.0000000000
H          H       0.49652   0.27155   0.68477   0.0000000000
C          C       0.35050   0.45777   0.00037   0.0000000000
C          C       0.40609   0.49511   0.01618   0.0000000000
C          C       0.36093   0.48289   0.97967   0.0000000000
C          C       0.38841   0.50155   0.98744   0.0000000000
C          C       0.36816   0.45134   0.02901   0.0000000000
C          C       0.39573   0.46978   0.03677   0.0000000000
H          H       0.69050   0.05683   0.96847   0.0000000000
H          H       0.34767   0.48820   0.95745   0.0000000000
F          F       0.39757   0.52566   0.96670   0.0000000000
H          H       0.36073   0.43204   0.04542   0.0000000000
H          H       0.40879   0.46421   0.05905   0.0000000000
N          N       0.69055   0.91706   0.48836   0.0000000000
C          C       0.67874   0.93867   0.50831   0.0000000000
C          C       0.71952   0.89699   0.49452   0.0000000000
B          B       0.56300   0.01574   0.47432   0.0000000000
O          O       0.49408   0.44564   0.45584   0.0000000000
C          C       0.96425   0.77469   0.12482   0.0000000000
H          H       0.94227   0.77099   0.10934   0.0000000000
H          H       0.95976   0.79675   0.13994   0.0000000000
H          H       0.49652   0.72845   0.81523   0.0000000000
C          C       0.35050   0.54223   0.49963   0.0000000000
C          C       0.40609   0.50489   0.48382   0.0000000000
C          C       0.36093   0.51711   0.52033   0.0000000000
C          C       0.38841   0.49845   0.51256   0.0000000000
C          C       0.36816   0.54866   0.47099   0.0000000000
C          C       0.39573   0.53022   0.46323   0.0000000000
H          H       0.69050   0.94317   0.53153   0.0000000000
H          H       0.34767   0.51180   0.54255   0.0000000000
F          F       0.39757   0.47434   0.53330   0.0000000000
H          H       0.36073   0.56796   0.45458   0.0000000000
H          H       0.40879   0.53579   0.44095   0.0000000000
N          N       0.19055   0.41706   0.98836   0.0000000000
C          C       0.17874   0.43867   0.00831   0.0000000000
C          C       0.21952   0.39699   0.99452   0.0000000000
B          B       0.06300   0.51574   0.97432   0.0000000000
O          O       0.99408   0.94564   0.95584   0.0000000000
C          C       0.46425   0.27469   0.62482   0.0000000000
H          H       0.44227   0.27099   0.60934   0.0000000000
H          H       0.45976   0.29675   0.63994   0.0000000000
H          H       0.99652   0.22845   0.31523   0.0000000000
C          C       0.85050   0.04223   0.99963   0.0000000000
C          C       0.90609   0.00489   0.98382   0.0000000000
C          C       0.86093   0.01711   0.02033   0.0000000000
C          C       0.88841   0.99845   0.01256   0.0000000000
C          C       0.86816   0.04866   0.97099   0.0000000000
C          C       0.89573   0.03022   0.96323   0.0000000000
H          H       0.19050   0.44317   0.03153   0.0000000000
H          H       0.84767   0.01180   0.04255   0.0000000000
F          F       0.89757   0.97434   0.03330   0.0000000000
H          H       0.86073   0.06796   0.95458   0.0000000000
H          H       0.90879   0.03579   0.94095   0.0000000000
N          N       0.80945   0.08294   0.98836   0.0000000000
C          C       0.82126   0.06133   0.00831   0.0000000000
C          C       0.78048   0.10301   0.99452   0.0000000000
B          B       0.93700   0.98426   0.97432   0.0000000000
O          O       0.00592   0.55436   0.95584   0.0000000000
C          C       0.53575   0.22531   0.62482   0.0000000000
H          H       0.55773   0.22901   0.60934   0.0000000000
H          H       0.54024   0.20325   0.63994   0.0000000000
H          H       0.00348   0.27155   0.31523   0.0000000000
C          C       0.14950   0.45777   0.99963   0.0000000000
C          C       0.09391   0.49511   0.98382   0.0000000000
C          C       0.13907   0.48289   0.02033   0.0000000000
C          C       0.11159   0.50155   0.01256   0.0000000000
C          C       0.13184   0.45134   0.97099   0.0000000000
C          C       0.10427   0.46978   0.96323   0.0000000000
H          H       0.80950   0.05683   0.03153   0.0000000000
H          H       0.15233   0.48820   0.04255   0.0000000000
F          F       0.10243   0.52566   0.03330   0.0000000000
H          H       0.13927   0.43204   0.95458   0.0000000000
H          H       0.09121   0.46421   0.94095   0.0000000000
N          N       0.30945   0.58294   0.48836   0.0000000000
C          C       0.32126   0.56133   0.50831   0.0000000000
C          C       0.28048   0.60301   0.49452   0.0000000000
B          B       0.43700   0.48426   0.47432   0.0000000000
O          O       0.50592   0.05436   0.45584   0.0000000000
C          C       0.03575   0.72531   0.12482   0.0000000000
H          H       0.05773   0.72901   0.10934   0.0000000000
H          H       0.04024   0.70325   0.13994   0.0000000000
H          H       0.50348   0.77155   0.81523   0.0000000000
C          C       0.64950   0.95777   0.49963   0.0000000000
C          C       0.59391   0.99511   0.48382   0.0000000000
C          C       0.63907   0.98289   0.52033   0.0000000000
C          C       0.61159   0.00155   0.51256   0.0000000000
C          C       0.63184   0.95134   0.47099   0.0000000000
C          C       0.60427   0.96978   0.46323   0.0000000000
H          H       0.30950   0.55683   0.53153   0.0000000000
H          H       0.65233   0.98820   0.54255   0.0000000000
F          F       0.60243   0.02566   0.53330   0.0000000000
H          H       0.63927   0.93204   0.45458   0.0000000000
H          H       0.59121   0.96421   0.44095   0.0000000000
N          N       0.30945   0.41706   0.01164   0.0000000000
C          C       0.32126   0.43867   0.99169   0.0000000000
C          C       0.28048   0.39699   0.00548   0.0000000000
B          B       0.43700   0.51574   0.02568   0.0000000000
O          O       0.50592   0.94564   0.04416   0.0000000000
C          C       0.03575   0.27469   0.37518   0.0000000000
H          H       0.05773   0.27099   0.39066   0.0000000000
H          H       0.04024   0.29675   0.36006   0.0000000000
H          H       0.50348   0.22845   0.68477   0.0000000000
C          C       0.64950   0.04223   0.00037   0.0000000000
C          C       0.59391   0.00489   0.01618   0.0000000000
C          C       0.63907   0.01711   0.97967   0.0000000000
C          C       0.61159   0.99845   0.98744   0.0000000000
C          C       0.63184   0.04866   0.02901   0.0000000000
C          C       0.60427   0.03022   0.03677   0.0000000000
H          H       0.30950   0.44317   0.96847   0.0000000000
H          H       0.65233   0.01180   0.95745   0.0000000000
F          F       0.60243   0.97434   0.96670   0.0000000000
H          H       0.63927   0.06796   0.04542   0.0000000000
H          H       0.59121   0.03579   0.05905   0.0000000000
N          N       0.80945   0.91706   0.51164   0.0000000000
C          C       0.82126   0.93867   0.49169   0.0000000000
C          C       0.78048   0.89699   0.50548   0.0000000000
B          B       0.93700   0.01574   0.52568   0.0000000000
O          O       0.00592   0.44564   0.54416   0.0000000000
C          C       0.53575   0.77469   0.87518   0.0000000000
H          H       0.55773   0.77099   0.89066   0.0000000000
H          H       0.54024   0.79675   0.86006   0.0000000000
H          H       0.00348   0.72845   0.18477   0.0000000000
C          C       0.14950   0.54223   0.50037   0.0000000000
C          C       0.09391   0.50489   0.51618   0.0000000000
C          C       0.13907   0.51711   0.47967   0.0000000000
C          C       0.11159   0.49845   0.48744   0.0000000000
C          C       0.13184   0.54866   0.52901   0.0000000000
C          C       0.10427   0.53022   0.53677   0.0000000000
H          H       0.80950   0.94317   0.46847   0.0000000000
H          H       0.15233   0.51180   0.45745   0.0000000000
F          F       0.10243   0.47434   0.46670   0.0000000000
H          H       0.13927   0.56796   0.54542   0.0000000000
H          H       0.09121   0.53579   0.55905   0.0000000000
C          C       0.25000   0.66870   0.50000   0.0000000000
C          C       0.25000   0.33130   0.00000   0.0000000000
C          C       0.75000   0.16870   0.00000   0.0000000000
C          C       0.75000   0.83130   0.50000   0.0000000000
C          C       0.50000   0.25000   0.66870   0.0000000000
C          C       0.00000   0.25000   0.33130   0.0000000000
C          C       0.00000   0.75000   0.16870   0.0000000000
C          C       0.50000   0.75000   0.83130   0.0000000000
C          C       0.66870   0.50000   0.25000   0.0000000000
C          C       0.33130   0.00000   0.25000   0.0000000000
C          C       0.16870   0.00000   0.75000   0.0000000000
C          C       0.83130   0.50000   0.75000   0.0000000000
C          C       0.91870   0.50000   0.75000   0.0000000000
C          C       0.58130   0.50000   0.25000   0.0000000000
C          C       0.41870   0.00000   0.25000   0.0000000000
C          C       0.08130   0.00000   0.75000   0.0000000000
C          C       0.50000   0.75000   0.91870   0.0000000000
C          C       0.50000   0.25000   0.58130   0.0000000000
C          C       0.00000   0.25000   0.41870   0.0000000000
C          C       0.00000   0.75000   0.08130   0.0000000000
C          C       0.75000   0.91870   0.50000   0.0000000000
C          C       0.25000   0.58130   0.50000   0.0000000000
C          C       0.25000   0.41870   0.00000   0.0000000000
C          C       0.75000   0.08130   0.00000   0.0000000000
