data_crystal
 
_cell_length_a    41.01150
_cell_length_b    41.01150
_cell_length_c    41.01150
_cell_angle_alpha 90.00000
_cell_angle_beta  90.00000
_cell_angle_gamma 90.00000
 
_symmetry_space_group_name_Hall 'P 1'
_symmetry_space_group_name_H-M  'P 1'
 
loop_
_symmetry_equiv_pos_as_xyz
 'x,y,z' 
 
loop_
_atom_site_label
_atom_site_type_symbol
_atom_site_fract_x
_atom_site_fract_y
_atom_site_fract_z
_atom_site_charge
N          N       0.26211   0.33295   0.94063   0.0000000000
C          C       0.24230   0.31128   0.92870   0.0000000000
C          C       0.25572   0.35301   0.96956   0.0000000000
B          B       0.27663   0.23414   0.81334   0.0000000000
O          O       0.29413   0.80520   0.74356   0.0000000000
C          C       0.62517   0.47559   0.21406   0.0000000000
H          H       0.64065   0.47946   0.19210   0.0000000000
H          H       0.61005   0.45356   0.20939   0.0000000000
H          H       0.93477   0.52153   0.74635   0.0000000000
C          C       0.25122   0.70777   0.60050   0.0000000000
C          C       0.26747   0.74499   0.65595   0.0000000000
C          C       0.23086   0.73324   0.61084   0.0000000000
C          C       0.23896   0.75179   0.63827   0.0000000000
C          C       0.27978   0.70097   0.61822   0.0000000000
C          C       0.28777   0.71937   0.64577   0.0000000000
H          H       0.21903   0.30668   0.94033   0.0000000000
H          H       0.20874   0.73890   0.59757   0.0000000000
H          H       0.22283   0.77139   0.64559   0.0000000000
H          H       0.29591   0.68141   0.61086   0.0000000000
H          H       0.30992   0.71359   0.65895   0.0000000000
N          N       0.76211   0.83295   0.44063   0.0000000000
C          C       0.74230   0.81128   0.42870   0.0000000000
C          C       0.75572   0.85301   0.46956   0.0000000000
B          B       0.77663   0.73414   0.31334   0.0000000000
O          O       0.79413   0.30520   0.24356   0.0000000000
C          C       0.12517   0.97559   0.71406   0.0000000000
H          H       0.14065   0.97946   0.69210   0.0000000000
H          H       0.11005   0.95356   0.70939   0.0000000000
H          H       0.43477   0.02153   0.24635   0.0000000000
C          C       0.75122   0.20777   0.10050   0.0000000000
C          C       0.76747   0.24499   0.15595   0.0000000000
C          C       0.73086   0.23324   0.11084   0.0000000000
C          C       0.73896   0.25179   0.13827   0.0000000000
C          C       0.77978   0.20097   0.11822   0.0000000000
C          C       0.78777   0.21937   0.14577   0.0000000000
H          H       0.71903   0.80668   0.44033   0.0000000000
H          H       0.70874   0.23890   0.09757   0.0000000000
H          H       0.72283   0.27139   0.14559   0.0000000000
H          H       0.79591   0.18141   0.11086   0.0000000000
H          H       0.80992   0.21359   0.15895   0.0000000000
N          N       0.23789   0.66705   0.44063   0.0000000000
C          C       0.25770   0.68872   0.42870   0.0000000000
C          C       0.24428   0.64699   0.46956   0.0000000000
B          B       0.22337   0.76586   0.31334   0.0000000000
O          O       0.20587   0.19480   0.24356   0.0000000000
C          C       0.87483   0.52441   0.71406   0.0000000000
H          H       0.85935   0.52054   0.69210   0.0000000000
H          H       0.88995   0.54644   0.70939   0.0000000000
H          H       0.56523   0.47847   0.24635   0.0000000000
C          C       0.24878   0.29223   0.10050   0.0000000000
C          C       0.23253   0.25501   0.15595   0.0000000000
C          C       0.26914   0.26676   0.11084   0.0000000000
C          C       0.26104   0.24821   0.13827   0.0000000000
C          C       0.22022   0.29903   0.11822   0.0000000000
C          C       0.21223   0.28063   0.14577   0.0000000000
H          H       0.28097   0.69332   0.44033   0.0000000000
H          H       0.29126   0.26110   0.09757   0.0000000000
H          H       0.27717   0.22861   0.14559   0.0000000000
H          H       0.20409   0.31859   0.11086   0.0000000000
H          H       0.19008   0.28641   0.15895   0.0000000000
N          N       0.73789   0.16705   0.94063   0.0000000000
C          C       0.75770   0.18872   0.92870   0.0000000000
C          C       0.74428   0.14699   0.96956   0.0000000000
B          B       0.72337   0.26586   0.81334   0.0000000000
O          O       0.70587   0.69480   0.74356   0.0000000000
C          C       0.37483   0.02441   0.21406   0.0000000000
H          H       0.35935   0.02054   0.19210   0.0000000000
H          H       0.38995   0.04644   0.20939   0.0000000000
H          H       0.06523   0.97847   0.74635   0.0000000000
C          C       0.74878   0.79223   0.60050   0.0000000000
C          C       0.73253   0.75501   0.65595   0.0000000000
C          C       0.76914   0.76676   0.61084   0.0000000000
C          C       0.76104   0.74821   0.63827   0.0000000000
C          C       0.72022   0.79903   0.61822   0.0000000000
C          C       0.71223   0.78063   0.64577   0.0000000000
H          H       0.78097   0.19332   0.94033   0.0000000000
H          H       0.79126   0.76110   0.59757   0.0000000000
H          H       0.77717   0.72861   0.64559   0.0000000000
H          H       0.70409   0.81859   0.61086   0.0000000000
H          H       0.69008   0.78641   0.65895   0.0000000000
N          N       0.73789   0.83295   0.55937   0.0000000000
C          C       0.75770   0.81128   0.57130   0.0000000000
C          C       0.74428   0.85301   0.53044   0.0000000000
B          B       0.72337   0.73414   0.68666   0.0000000000
O          O       0.70587   0.30520   0.75644   0.0000000000
C          C       0.37483   0.97559   0.28594   0.0000000000
H          H       0.35935   0.97946   0.30790   0.0000000000
H          H       0.38995   0.95356   0.29061   0.0000000000
H          H       0.06523   0.02153   0.75365   0.0000000000
C          C       0.74878   0.20777   0.89950   0.0000000000
C          C       0.73253   0.24499   0.84405   0.0000000000
C          C       0.76914   0.23324   0.88916   0.0000000000
C          C       0.76104   0.25179   0.86173   0.0000000000
C          C       0.72022   0.20097   0.88178   0.0000000000
C          C       0.71223   0.21937   0.85423   0.0000000000
H          H       0.78097   0.80668   0.55967   0.0000000000
H          H       0.79126   0.23890   0.90243   0.0000000000
H          H       0.77717   0.27139   0.85441   0.0000000000
H          H       0.70409   0.18141   0.88914   0.0000000000
H          H       0.69008   0.21359   0.84105   0.0000000000
N          N       0.23789   0.33295   0.05937   0.0000000000
C          C       0.25770   0.31128   0.07130   0.0000000000
C          C       0.24428   0.35301   0.03044   0.0000000000
B          B       0.22337   0.23414   0.18666   0.0000000000
O          O       0.20587   0.80520   0.25644   0.0000000000
C          C       0.87483   0.47559   0.78594   0.0000000000
H          H       0.85935   0.47946   0.80790   0.0000000000
H          H       0.88995   0.45356   0.79061   0.0000000000
H          H       0.56523   0.52153   0.25365   0.0000000000
C          C       0.24878   0.70777   0.39950   0.0000000000
C          C       0.23253   0.74499   0.34405   0.0000000000
C          C       0.26914   0.73324   0.38916   0.0000000000
C          C       0.26104   0.75179   0.36173   0.0000000000
C          C       0.22022   0.70097   0.38178   0.0000000000
C          C       0.21223   0.71937   0.35423   0.0000000000
H          H       0.28097   0.30668   0.05967   0.0000000000
H          H       0.29126   0.73890   0.40243   0.0000000000
H          H       0.27717   0.77139   0.35441   0.0000000000
H          H       0.20409   0.68141   0.38914   0.0000000000
H          H       0.19008   0.71359   0.34105   0.0000000000
N          N       0.76211   0.16705   0.05937   0.0000000000
C          C       0.74230   0.18872   0.07130   0.0000000000
C          C       0.75572   0.14699   0.03044   0.0000000000
B          B       0.77663   0.26586   0.18666   0.0000000000
O          O       0.79413   0.69480   0.25644   0.0000000000
C          C       0.12517   0.02441   0.78594   0.0000000000
H          H       0.14065   0.02054   0.80790   0.0000000000
H          H       0.11005   0.04644   0.79061   0.0000000000
H          H       0.43477   0.97847   0.25365   0.0000000000
C          C       0.75122   0.79223   0.39950   0.0000000000
C          C       0.76747   0.75501   0.34405   0.0000000000
C          C       0.73086   0.76676   0.38916   0.0000000000
C          C       0.73896   0.74821   0.36173   0.0000000000
C          C       0.77978   0.79903   0.38178   0.0000000000
C          C       0.78777   0.78063   0.35423   0.0000000000
H          H       0.71903   0.19332   0.05967   0.0000000000
H          H       0.70874   0.76110   0.40243   0.0000000000
H          H       0.72283   0.72861   0.35441   0.0000000000
H          H       0.79591   0.81859   0.38914   0.0000000000
H          H       0.80992   0.78641   0.34105   0.0000000000
N          N       0.26211   0.66705   0.55937   0.0000000000
C          C       0.24230   0.68872   0.57130   0.0000000000
C          C       0.25572   0.64699   0.53044   0.0000000000
B          B       0.27663   0.76586   0.68666   0.0000000000
O          O       0.29413   0.19480   0.75644   0.0000000000
C          C       0.62517   0.52441   0.28594   0.0000000000
H          H       0.64065   0.52054   0.30790   0.0000000000
H          H       0.61005   0.54644   0.29061   0.0000000000
H          H       0.93477   0.47847   0.75365   0.0000000000
C          C       0.25122   0.29223   0.89950   0.0000000000
C          C       0.26747   0.25501   0.84405   0.0000000000
C          C       0.23086   0.26676   0.88916   0.0000000000
C          C       0.23896   0.24821   0.86173   0.0000000000
C          C       0.27978   0.29903   0.88178   0.0000000000
C          C       0.28777   0.28063   0.85423   0.0000000000
H          H       0.21903   0.69332   0.55967   0.0000000000
H          H       0.20874   0.26110   0.90243   0.0000000000
H          H       0.22283   0.22861   0.85441   0.0000000000
H          H       0.29591   0.31859   0.88914   0.0000000000
H          H       0.30992   0.28641   0.84105   0.0000000000
N          N       0.94063   0.26211   0.33295   0.0000000000
C          C       0.92870   0.24230   0.31128   0.0000000000
C          C       0.96956   0.25572   0.35301   0.0000000000
B          B       0.81334   0.27663   0.23414   0.0000000000
O          O       0.74356   0.29413   0.80520   0.0000000000
C          C       0.21406   0.62517   0.47559   0.0000000000
H          H       0.19210   0.64065   0.47946   0.0000000000
H          H       0.20939   0.61005   0.45356   0.0000000000
H          H       0.74635   0.93477   0.52153   0.0000000000
C          C       0.60050   0.25122   0.70777   0.0000000000
C          C       0.65595   0.26747   0.74499   0.0000000000
C          C       0.61084   0.23086   0.73324   0.0000000000
C          C       0.63827   0.23896   0.75179   0.0000000000
C          C       0.61822   0.27978   0.70097   0.0000000000
C          C       0.64577   0.28777   0.71937   0.0000000000
H          H       0.94033   0.21903   0.30668   0.0000000000
H          H       0.59757   0.20874   0.73890   0.0000000000
H          H       0.64559   0.22283   0.77139   0.0000000000
H          H       0.61086   0.29591   0.68141   0.0000000000
H          H       0.65895   0.30992   0.71359   0.0000000000
N          N       0.44063   0.76211   0.83295   0.0000000000
C          C       0.42870   0.74230   0.81128   0.0000000000
C          C       0.46956   0.75572   0.85301   0.0000000000
B          B       0.31334   0.77663   0.73414   0.0000000000
O          O       0.24356   0.79413   0.30520   0.0000000000
C          C       0.71406   0.12517   0.97559   0.0000000000
H          H       0.69210   0.14065   0.97946   0.0000000000
H          H       0.70939   0.11005   0.95356   0.0000000000
H          H       0.24635   0.43477   0.02153   0.0000000000
C          C       0.10050   0.75122   0.20777   0.0000000000
C          C       0.15595   0.76747   0.24499   0.0000000000
C          C       0.11084   0.73086   0.23324   0.0000000000
C          C       0.13827   0.73896   0.25179   0.0000000000
C          C       0.11822   0.77978   0.20097   0.0000000000
C          C       0.14577   0.78777   0.21937   0.0000000000
H          H       0.44033   0.71903   0.80668   0.0000000000
H          H       0.09757   0.70874   0.23890   0.0000000000
H          H       0.14559   0.72283   0.27139   0.0000000000
H          H       0.11086   0.79591   0.18141   0.0000000000
H          H       0.15895   0.80992   0.21359   0.0000000000
N          N       0.44063   0.23789   0.66705   0.0000000000
C          C       0.42870   0.25770   0.68872   0.0000000000
C          C       0.46956   0.24428   0.64699   0.0000000000
B          B       0.31334   0.22337   0.76586   0.0000000000
O          O       0.24356   0.20587   0.19480   0.0000000000
C          C       0.71406   0.87483   0.52441   0.0000000000
H          H       0.69210   0.85935   0.52054   0.0000000000
H          H       0.70939   0.88995   0.54644   0.0000000000
H          H       0.24635   0.56523   0.47847   0.0000000000
C          C       0.10050   0.24878   0.29223   0.0000000000
C          C       0.15595   0.23253   0.25501   0.0000000000
C          C       0.11084   0.26914   0.26676   0.0000000000
C          C       0.13827   0.26104   0.24821   0.0000000000
C          C       0.11822   0.22022   0.29903   0.0000000000
C          C       0.14577   0.21223   0.28063   0.0000000000
H          H       0.44033   0.28097   0.69332   0.0000000000
H          H       0.09757   0.29126   0.26110   0.0000000000
H          H       0.14559   0.27717   0.22861   0.0000000000
H          H       0.11086   0.20409   0.31859   0.0000000000
H          H       0.15895   0.19008   0.28641   0.0000000000
N          N       0.94063   0.73789   0.16705   0.0000000000
C          C       0.92870   0.75770   0.18872   0.0000000000
C          C       0.96956   0.74428   0.14699   0.0000000000
B          B       0.81334   0.72337   0.26586   0.0000000000
O          O       0.74356   0.70587   0.69480   0.0000000000
C          C       0.21406   0.37483   0.02441   0.0000000000
H          H       0.19210   0.35935   0.02054   0.0000000000
H          H       0.20939   0.38995   0.04644   0.0000000000
H          H       0.74635   0.06523   0.97847   0.0000000000
C          C       0.60050   0.74878   0.79223   0.0000000000
C          C       0.65595   0.73253   0.75501   0.0000000000
C          C       0.61084   0.76914   0.76676   0.0000000000
C          C       0.63827   0.76104   0.74821   0.0000000000
C          C       0.61822   0.72022   0.79903   0.0000000000
C          C       0.64577   0.71223   0.78063   0.0000000000
H          H       0.94033   0.78097   0.19332   0.0000000000
H          H       0.59757   0.79126   0.76110   0.0000000000
H          H       0.64559   0.77717   0.72861   0.0000000000
H          H       0.61086   0.70409   0.81859   0.0000000000
H          H       0.65895   0.69008   0.78641   0.0000000000
N          N       0.55937   0.73789   0.83295   0.0000000000
C          C       0.57130   0.75770   0.81128   0.0000000000
C          C       0.53044   0.74428   0.85301   0.0000000000
B          B       0.68666   0.72337   0.73414   0.0000000000
O          O       0.75644   0.70587   0.30520   0.0000000000
C          C       0.28594   0.37483   0.97559   0.0000000000
H          H       0.30790   0.35935   0.97946   0.0000000000
H          H       0.29061   0.38995   0.95356   0.0000000000
H          H       0.75365   0.06523   0.02153   0.0000000000
C          C       0.89950   0.74878   0.20777   0.0000000000
C          C       0.84405   0.73253   0.24499   0.0000000000
C          C       0.88916   0.76914   0.23324   0.0000000000
C          C       0.86173   0.76104   0.25179   0.0000000000
C          C       0.88178   0.72022   0.20097   0.0000000000
C          C       0.85423   0.71223   0.21937   0.0000000000
H          H       0.55967   0.78097   0.80668   0.0000000000
H          H       0.90243   0.79126   0.23890   0.0000000000
H          H       0.85441   0.77717   0.27139   0.0000000000
H          H       0.88914   0.70409   0.18141   0.0000000000
H          H       0.84105   0.69008   0.21359   0.0000000000
N          N       0.05937   0.23789   0.33295   0.0000000000
C          C       0.07130   0.25770   0.31128   0.0000000000
C          C       0.03044   0.24428   0.35301   0.0000000000
B          B       0.18666   0.22337   0.23414   0.0000000000
O          O       0.25644   0.20587   0.80520   0.0000000000
C          C       0.78594   0.87483   0.47559   0.0000000000
H          H       0.80790   0.85935   0.47946   0.0000000000
H          H       0.79061   0.88995   0.45356   0.0000000000
H          H       0.25365   0.56523   0.52153   0.0000000000
C          C       0.39950   0.24878   0.70777   0.0000000000
C          C       0.34405   0.23253   0.74499   0.0000000000
C          C       0.38916   0.26914   0.73324   0.0000000000
C          C       0.36173   0.26104   0.75179   0.0000000000
C          C       0.38178   0.22022   0.70097   0.0000000000
C          C       0.35423   0.21223   0.71937   0.0000000000
H          H       0.05967   0.28097   0.30668   0.0000000000
H          H       0.40243   0.29126   0.73890   0.0000000000
H          H       0.35441   0.27717   0.77139   0.0000000000
H          H       0.38914   0.20409   0.68141   0.0000000000
H          H       0.34105   0.19008   0.71359   0.0000000000
N          N       0.05937   0.76211   0.16705   0.0000000000
C          C       0.07130   0.74230   0.18872   0.0000000000
C          C       0.03044   0.75572   0.14699   0.0000000000
B          B       0.18666   0.77663   0.26586   0.0000000000
O          O       0.25644   0.79413   0.69480   0.0000000000
C          C       0.78594   0.12517   0.02441   0.0000000000
H          H       0.80790   0.14065   0.02054   0.0000000000
H          H       0.79061   0.11005   0.04644   0.0000000000
H          H       0.25365   0.43477   0.97847   0.0000000000
C          C       0.39950   0.75122   0.79223   0.0000000000
C          C       0.34405   0.76747   0.75501   0.0000000000
C          C       0.38916   0.73086   0.76676   0.0000000000
C          C       0.36173   0.73896   0.74821   0.0000000000
C          C       0.38178   0.77978   0.79903   0.0000000000
C          C       0.35423   0.78777   0.78063   0.0000000000
H          H       0.05967   0.71903   0.19332   0.0000000000
H          H       0.40243   0.70874   0.76110   0.0000000000
H          H       0.35441   0.72283   0.72861   0.0000000000
H          H       0.38914   0.79591   0.81859   0.0000000000
H          H       0.34105   0.80992   0.78641   0.0000000000
N          N       0.55937   0.26211   0.66705   0.0000000000
C          C       0.57130   0.24230   0.68872   0.0000000000
C          C       0.53044   0.25572   0.64699   0.0000000000
B          B       0.68666   0.27663   0.76586   0.0000000000
O          O       0.75644   0.29413   0.19480   0.0000000000
C          C       0.28594   0.62517   0.52441   0.0000000000
H          H       0.30790   0.64065   0.52054   0.0000000000
H          H       0.29061   0.61005   0.54644   0.0000000000
H          H       0.75365   0.93477   0.47847   0.0000000000
C          C       0.89950   0.25122   0.29223   0.0000000000
C          C       0.84405   0.26747   0.25501   0.0000000000
C          C       0.88916   0.23086   0.26676   0.0000000000
C          C       0.86173   0.23896   0.24821   0.0000000000
C          C       0.88178   0.27978   0.29903   0.0000000000
C          C       0.85423   0.28777   0.28063   0.0000000000
H          H       0.55967   0.21903   0.69332   0.0000000000
H          H       0.90243   0.20874   0.26110   0.0000000000
H          H       0.85441   0.22283   0.22861   0.0000000000
H          H       0.88914   0.29591   0.31859   0.0000000000
H          H       0.84105   0.30992   0.28641   0.0000000000
N          N       0.33295   0.94063   0.26211   0.0000000000
C          C       0.31128   0.92870   0.24230   0.0000000000
C          C       0.35301   0.96956   0.25572   0.0000000000
B          B       0.23414   0.81334   0.27663   0.0000000000
O          O       0.80520   0.74356   0.29413   0.0000000000
C          C       0.47559   0.21406   0.62517   0.0000000000
H          H       0.47946   0.19210   0.64065   0.0000000000
H          H       0.45356   0.20939   0.61005   0.0000000000
H          H       0.52153   0.74635   0.93477   0.0000000000
C          C       0.70777   0.60050   0.25122   0.0000000000
C          C       0.74499   0.65595   0.26747   0.0000000000
C          C       0.73324   0.61084   0.23086   0.0000000000
C          C       0.75179   0.63827   0.23896   0.0000000000
C          C       0.70097   0.61822   0.27978   0.0000000000
C          C       0.71937   0.64577   0.28777   0.0000000000
H          H       0.30668   0.94033   0.21903   0.0000000000
H          H       0.73890   0.59757   0.20874   0.0000000000
H          H       0.77139   0.64559   0.22283   0.0000000000
H          H       0.68141   0.61086   0.29591   0.0000000000
H          H       0.71359   0.65895   0.30992   0.0000000000
N          N       0.83295   0.44063   0.76211   0.0000000000
C          C       0.81128   0.42870   0.74230   0.0000000000
C          C       0.85301   0.46956   0.75572   0.0000000000
B          B       0.73414   0.31334   0.77663   0.0000000000
O          O       0.30520   0.24356   0.79413   0.0000000000
C          C       0.97559   0.71406   0.12517   0.0000000000
H          H       0.97946   0.69210   0.14065   0.0000000000
H          H       0.95356   0.70939   0.11005   0.0000000000
H          H       0.02153   0.24635   0.43477   0.0000000000
C          C       0.20777   0.10050   0.75122   0.0000000000
C          C       0.24499   0.15595   0.76747   0.0000000000
C          C       0.23324   0.11084   0.73086   0.0000000000
C          C       0.25179   0.13827   0.73896   0.0000000000
C          C       0.20097   0.11822   0.77978   0.0000000000
C          C       0.21937   0.14577   0.78777   0.0000000000
H          H       0.80668   0.44033   0.71903   0.0000000000
H          H       0.23890   0.09757   0.70874   0.0000000000
H          H       0.27139   0.14559   0.72283   0.0000000000
H          H       0.18141   0.11086   0.79591   0.0000000000
H          H       0.21359   0.15895   0.80992   0.0000000000
N          N       0.66705   0.44063   0.23789   0.0000000000
C          C       0.68872   0.42870   0.25770   0.0000000000
C          C       0.64699   0.46956   0.24428   0.0000000000
B          B       0.76586   0.31334   0.22337   0.0000000000
O          O       0.19480   0.24356   0.20587   0.0000000000
C          C       0.52441   0.71406   0.87483   0.0000000000
H          H       0.52054   0.69210   0.85935   0.0000000000
H          H       0.54644   0.70939   0.88995   0.0000000000
H          H       0.47847   0.24635   0.56523   0.0000000000
C          C       0.29223   0.10050   0.24878   0.0000000000
C          C       0.25501   0.15595   0.23253   0.0000000000
C          C       0.26676   0.11084   0.26914   0.0000000000
C          C       0.24821   0.13827   0.26104   0.0000000000
C          C       0.29903   0.11822   0.22022   0.0000000000
C          C       0.28063   0.14577   0.21223   0.0000000000
H          H       0.69332   0.44033   0.28097   0.0000000000
H          H       0.26110   0.09757   0.29126   0.0000000000
H          H       0.22861   0.14559   0.27717   0.0000000000
H          H       0.31859   0.11086   0.20409   0.0000000000
H          H       0.28641   0.15895   0.19008   0.0000000000
N          N       0.16705   0.94063   0.73789   0.0000000000
C          C       0.18872   0.92870   0.75770   0.0000000000
C          C       0.14699   0.96956   0.74428   0.0000000000
B          B       0.26586   0.81334   0.72337   0.0000000000
O          O       0.69480   0.74356   0.70587   0.0000000000
C          C       0.02441   0.21406   0.37483   0.0000000000
H          H       0.02054   0.19210   0.35935   0.0000000000
H          H       0.04644   0.20939   0.38995   0.0000000000
H          H       0.97847   0.74635   0.06523   0.0000000000
C          C       0.79223   0.60050   0.74878   0.0000000000
C          C       0.75501   0.65595   0.73253   0.0000000000
C          C       0.76676   0.61084   0.76914   0.0000000000
C          C       0.74821   0.63827   0.76104   0.0000000000
C          C       0.79903   0.61822   0.72022   0.0000000000
C          C       0.78063   0.64577   0.71223   0.0000000000
H          H       0.19332   0.94033   0.78097   0.0000000000
H          H       0.76110   0.59757   0.79126   0.0000000000
H          H       0.72861   0.64559   0.77717   0.0000000000
H          H       0.81859   0.61086   0.70409   0.0000000000
H          H       0.78641   0.65895   0.69008   0.0000000000
N          N       0.83295   0.55937   0.73789   0.0000000000
C          C       0.81128   0.57130   0.75770   0.0000000000
C          C       0.85301   0.53044   0.74428   0.0000000000
B          B       0.73414   0.68666   0.72337   0.0000000000
O          O       0.30520   0.75644   0.70587   0.0000000000
C          C       0.97559   0.28594   0.37483   0.0000000000
H          H       0.97946   0.30790   0.35935   0.0000000000
H          H       0.95356   0.29061   0.38995   0.0000000000
H          H       0.02153   0.75365   0.06523   0.0000000000
C          C       0.20777   0.89950   0.74878   0.0000000000
C          C       0.24499   0.84405   0.73253   0.0000000000
C          C       0.23324   0.88916   0.76914   0.0000000000
C          C       0.25179   0.86173   0.76104   0.0000000000
C          C       0.20097   0.88178   0.72022   0.0000000000
C          C       0.21937   0.85423   0.71223   0.0000000000
H          H       0.80668   0.55967   0.78097   0.0000000000
H          H       0.23890   0.90243   0.79126   0.0000000000
H          H       0.27139   0.85441   0.77717   0.0000000000
H          H       0.18141   0.88914   0.70409   0.0000000000
H          H       0.21359   0.84105   0.69008   0.0000000000
N          N       0.33295   0.05937   0.23789   0.0000000000
C          C       0.31128   0.07130   0.25770   0.0000000000
C          C       0.35301   0.03044   0.24428   0.0000000000
B          B       0.23414   0.18666   0.22337   0.0000000000
O          O       0.80520   0.25644   0.20587   0.0000000000
C          C       0.47559   0.78594   0.87483   0.0000000000
H          H       0.47946   0.80790   0.85935   0.0000000000
H          H       0.45356   0.79061   0.88995   0.0000000000
H          H       0.52153   0.25365   0.56523   0.0000000000
C          C       0.70777   0.39950   0.24878   0.0000000000
C          C       0.74499   0.34405   0.23253   0.0000000000
C          C       0.73324   0.38916   0.26914   0.0000000000
C          C       0.75179   0.36173   0.26104   0.0000000000
C          C       0.70097   0.38178   0.22022   0.0000000000
C          C       0.71937   0.35423   0.21223   0.0000000000
H          H       0.30668   0.05967   0.28097   0.0000000000
H          H       0.73890   0.40243   0.29126   0.0000000000
H          H       0.77139   0.35441   0.27717   0.0000000000
H          H       0.68141   0.38914   0.20409   0.0000000000
H          H       0.71359   0.34105   0.19008   0.0000000000
N          N       0.16705   0.05937   0.76211   0.0000000000
C          C       0.18872   0.07130   0.74230   0.0000000000
C          C       0.14699   0.03044   0.75572   0.0000000000
B          B       0.26586   0.18666   0.77663   0.0000000000
O          O       0.69480   0.25644   0.79413   0.0000000000
C          C       0.02441   0.78594   0.12517   0.0000000000
H          H       0.02054   0.80790   0.14065   0.0000000000
H          H       0.04644   0.79061   0.11005   0.0000000000
H          H       0.97847   0.25365   0.43477   0.0000000000
C          C       0.79223   0.39950   0.75122   0.0000000000
C          C       0.75501   0.34405   0.76747   0.0000000000
C          C       0.76676   0.38916   0.73086   0.0000000000
C          C       0.74821   0.36173   0.73896   0.0000000000
C          C       0.79903   0.38178   0.77978   0.0000000000
C          C       0.78063   0.35423   0.78777   0.0000000000
H          H       0.19332   0.05967   0.71903   0.0000000000
H          H       0.76110   0.40243   0.70874   0.0000000000
H          H       0.72861   0.35441   0.72283   0.0000000000
H          H       0.81859   0.38914   0.79591   0.0000000000
H          H       0.78641   0.34105   0.80992   0.0000000000
N          N       0.66705   0.55937   0.26211   0.0000000000
C          C       0.68872   0.57130   0.24230   0.0000000000
C          C       0.64699   0.53044   0.25572   0.0000000000
B          B       0.76586   0.68666   0.27663   0.0000000000
O          O       0.19480   0.75644   0.29413   0.0000000000
C          C       0.52441   0.28594   0.62517   0.0000000000
H          H       0.52054   0.30790   0.64065   0.0000000000
H          H       0.54644   0.29061   0.61005   0.0000000000
H          H       0.47847   0.75365   0.93477   0.0000000000
C          C       0.29223   0.89950   0.25122   0.0000000000
C          C       0.25501   0.84405   0.26747   0.0000000000
C          C       0.26676   0.88916   0.23086   0.0000000000
C          C       0.24821   0.86173   0.23896   0.0000000000
C          C       0.29903   0.88178   0.27978   0.0000000000
C          C       0.28063   0.85423   0.28777   0.0000000000
H          H       0.69332   0.55967   0.21903   0.0000000000
H          H       0.26110   0.90243   0.20874   0.0000000000
H          H       0.22861   0.85441   0.22283   0.0000000000
H          H       0.31859   0.88914   0.29591   0.0000000000
H          H       0.28641   0.84105   0.30992   0.0000000000
N          N       0.58295   0.51211   0.19063   0.0000000000
C          C       0.56128   0.49230   0.17870   0.0000000000
C          C       0.60301   0.50572   0.21956   0.0000000000
B          B       0.48414   0.52663   0.06334   0.0000000000
O          O       0.05520   0.54413   0.99356   0.0000000000
C          C       0.72559   0.87517   0.46406   0.0000000000
H          H       0.72946   0.89065   0.44210   0.0000000000
H          H       0.70356   0.86005   0.45939   0.0000000000
H          H       0.77153   0.18477   0.99635   0.0000000000
C          C       0.95777   0.50122   0.85050   0.0000000000
C          C       0.99499   0.51747   0.90595   0.0000000000
C          C       0.98324   0.48086   0.86084   0.0000000000
C          C       0.00179   0.48896   0.88827   0.0000000000
C          C       0.95097   0.52978   0.86822   0.0000000000
C          C       0.96937   0.53777   0.89577   0.0000000000
H          H       0.55668   0.46903   0.19033   0.0000000000
H          H       0.98890   0.45874   0.84757   0.0000000000
H          H       0.02139   0.47283   0.89559   0.0000000000
H          H       0.93141   0.54591   0.86086   0.0000000000
H          H       0.96359   0.55992   0.90895   0.0000000000
N          N       0.08295   0.01211   0.69063   0.0000000000
C          C       0.06128   0.99230   0.67870   0.0000000000
C          C       0.10301   0.00572   0.71956   0.0000000000
B          B       0.98414   0.02663   0.56334   0.0000000000
O          O       0.55520   0.04413   0.49356   0.0000000000
C          C       0.22559   0.37517   0.96406   0.0000000000
H          H       0.22946   0.39065   0.94210   0.0000000000
H          H       0.20356   0.36005   0.95939   0.0000000000
H          H       0.27153   0.68477   0.49635   0.0000000000
C          C       0.45777   0.00122   0.35050   0.0000000000
C          C       0.49499   0.01747   0.40595   0.0000000000
C          C       0.48324   0.98086   0.36084   0.0000000000
C          C       0.50179   0.98896   0.38827   0.0000000000
C          C       0.45097   0.02978   0.36822   0.0000000000
C          C       0.46937   0.03777   0.39577   0.0000000000
H          H       0.05668   0.96903   0.69033   0.0000000000
H          H       0.48890   0.95874   0.34757   0.0000000000
H          H       0.52139   0.97283   0.39559   0.0000000000
H          H       0.43141   0.04591   0.36086   0.0000000000
H          H       0.46359   0.05992   0.40895   0.0000000000
N          N       0.91705   0.48789   0.69063   0.0000000000
C          C       0.93872   0.50770   0.67870   0.0000000000
C          C       0.89699   0.49428   0.71956   0.0000000000
B          B       0.01586   0.47337   0.56334   0.0000000000
O          O       0.44480   0.45587   0.49356   0.0000000000
C          C       0.77441   0.12483   0.96406   0.0000000000
H          H       0.77054   0.10935   0.94210   0.0000000000
H          H       0.79644   0.13995   0.95939   0.0000000000
H          H       0.72847   0.81523   0.49635   0.0000000000
C          C       0.54223   0.49878   0.35050   0.0000000000
C          C       0.50501   0.48253   0.40595   0.0000000000
C          C       0.51676   0.51914   0.36084   0.0000000000
C          C       0.49821   0.51104   0.38827   0.0000000000
C          C       0.54903   0.47022   0.36822   0.0000000000
C          C       0.53063   0.46223   0.39577   0.0000000000
H          H       0.94332   0.53097   0.69033   0.0000000000
H          H       0.51110   0.54126   0.34757   0.0000000000
H          H       0.47861   0.52717   0.39559   0.0000000000
H          H       0.56859   0.45409   0.36086   0.0000000000
H          H       0.53641   0.44008   0.40895   0.0000000000
N          N       0.41705   0.98789   0.19063   0.0000000000
C          C       0.43872   0.00770   0.17870   0.0000000000
C          C       0.39699   0.99428   0.21956   0.0000000000
B          B       0.51586   0.97337   0.06334   0.0000000000
O          O       0.94480   0.95587   0.99356   0.0000000000
C          C       0.27441   0.62483   0.46406   0.0000000000
H          H       0.27054   0.60935   0.44210   0.0000000000
H          H       0.29644   0.63995   0.45939   0.0000000000
H          H       0.22847   0.31523   0.99635   0.0000000000
C          C       0.04223   0.99878   0.85050   0.0000000000
C          C       0.00501   0.98253   0.90595   0.0000000000
C          C       0.01676   0.01914   0.86084   0.0000000000
C          C       0.99821   0.01104   0.88827   0.0000000000
C          C       0.04903   0.97022   0.86822   0.0000000000
C          C       0.03063   0.96223   0.89577   0.0000000000
H          H       0.44332   0.03097   0.19033   0.0000000000
H          H       0.01110   0.04126   0.84757   0.0000000000
H          H       0.97861   0.02717   0.89559   0.0000000000
H          H       0.06859   0.95409   0.86086   0.0000000000
H          H       0.03641   0.94008   0.90895   0.0000000000
N          N       0.08295   0.98789   0.80937   0.0000000000
C          C       0.06128   0.00770   0.82130   0.0000000000
C          C       0.10301   0.99428   0.78044   0.0000000000
B          B       0.98414   0.97337   0.93666   0.0000000000
O          O       0.55520   0.95587   0.00644   0.0000000000
C          C       0.22559   0.62483   0.53594   0.0000000000
H          H       0.22946   0.60935   0.55790   0.0000000000
H          H       0.20356   0.63995   0.54061   0.0000000000
H          H       0.27153   0.31523   0.00365   0.0000000000
C          C       0.45777   0.99878   0.14950   0.0000000000
C          C       0.49499   0.98253   0.09405   0.0000000000
C          C       0.48324   0.01914   0.13916   0.0000000000
C          C       0.50179   0.01104   0.11173   0.0000000000
C          C       0.45097   0.97022   0.13178   0.0000000000
C          C       0.46937   0.96223   0.10423   0.0000000000
H          H       0.05668   0.03097   0.80967   0.0000000000
H          H       0.48890   0.04126   0.15243   0.0000000000
H          H       0.52139   0.02717   0.10441   0.0000000000
H          H       0.43141   0.95409   0.13914   0.0000000000
H          H       0.46359   0.94008   0.09105   0.0000000000
N          N       0.58295   0.48789   0.30937   0.0000000000
C          C       0.56128   0.50770   0.32130   0.0000000000
C          C       0.60301   0.49428   0.28044   0.0000000000
B          B       0.48414   0.47337   0.43666   0.0000000000
O          O       0.05520   0.45587   0.50644   0.0000000000
C          C       0.72559   0.12483   0.03594   0.0000000000
H          H       0.72946   0.10935   0.05790   0.0000000000
H          H       0.70356   0.13995   0.04061   0.0000000000
H          H       0.77153   0.81523   0.50365   0.0000000000
C          C       0.95777   0.49878   0.64950   0.0000000000
C          C       0.99499   0.48253   0.59405   0.0000000000
C          C       0.98324   0.51914   0.63916   0.0000000000
C          C       0.00179   0.51104   0.61173   0.0000000000
C          C       0.95097   0.47022   0.63178   0.0000000000
C          C       0.96937   0.46223   0.60423   0.0000000000
H          H       0.55668   0.53097   0.30967   0.0000000000
H          H       0.98890   0.54126   0.65243   0.0000000000
H          H       0.02139   0.52717   0.60441   0.0000000000
H          H       0.93141   0.45409   0.63914   0.0000000000
H          H       0.96359   0.44008   0.59105   0.0000000000
N          N       0.41705   0.01211   0.30937   0.0000000000
C          C       0.43872   0.99230   0.32130   0.0000000000
C          C       0.39699   0.00572   0.28044   0.0000000000
B          B       0.51586   0.02663   0.43666   0.0000000000
O          O       0.94480   0.04413   0.50644   0.0000000000
C          C       0.27441   0.37517   0.03594   0.0000000000
H          H       0.27054   0.39065   0.05790   0.0000000000
H          H       0.29644   0.36005   0.04061   0.0000000000
H          H       0.22847   0.68477   0.50365   0.0000000000
C          C       0.04223   0.00122   0.64950   0.0000000000
C          C       0.00501   0.01747   0.59405   0.0000000000
C          C       0.01676   0.98086   0.63916   0.0000000000
C          C       0.99821   0.98896   0.61173   0.0000000000
C          C       0.04903   0.02978   0.63178   0.0000000000
C          C       0.03063   0.03777   0.60423   0.0000000000
H          H       0.44332   0.96903   0.30967   0.0000000000
H          H       0.01110   0.95874   0.65243   0.0000000000
H          H       0.97861   0.97283   0.60441   0.0000000000
H          H       0.06859   0.04591   0.63914   0.0000000000
H          H       0.03641   0.05992   0.59105   0.0000000000
N          N       0.91705   0.51211   0.80937   0.0000000000
C          C       0.93872   0.49230   0.82130   0.0000000000
C          C       0.89699   0.50572   0.78044   0.0000000000
B          B       0.01586   0.52663   0.93666   0.0000000000
O          O       0.44480   0.54413   0.00644   0.0000000000
C          C       0.77441   0.87517   0.53594   0.0000000000
H          H       0.77054   0.89065   0.55790   0.0000000000
H          H       0.79644   0.86005   0.54061   0.0000000000
H          H       0.72847   0.18477   0.00365   0.0000000000
C          C       0.54223   0.50122   0.14950   0.0000000000
C          C       0.50501   0.51747   0.09405   0.0000000000
C          C       0.51676   0.48086   0.13916   0.0000000000
C          C       0.49821   0.48896   0.11173   0.0000000000
C          C       0.54903   0.52978   0.13178   0.0000000000
C          C       0.53063   0.53777   0.10423   0.0000000000
H          H       0.94332   0.46903   0.80967   0.0000000000
H          H       0.51110   0.45874   0.15243   0.0000000000
H          H       0.47861   0.47283   0.10441   0.0000000000
H          H       0.56859   0.54591   0.13914   0.0000000000
H          H       0.53641   0.55992   0.09105   0.0000000000
N          N       0.51211   0.19063   0.58295   0.0000000000
C          C       0.49230   0.17870   0.56128   0.0000000000
C          C       0.50572   0.21956   0.60301   0.0000000000
B          B       0.52663   0.06334   0.48414   0.0000000000
O          O       0.54413   0.99356   0.05520   0.0000000000
C          C       0.87517   0.46406   0.72559   0.0000000000
H          H       0.89065   0.44210   0.72946   0.0000000000
H          H       0.86005   0.45939   0.70356   0.0000000000
H          H       0.18477   0.99635   0.77153   0.0000000000
C          C       0.50122   0.85050   0.95777   0.0000000000
C          C       0.51747   0.90595   0.99499   0.0000000000
C          C       0.48086   0.86084   0.98324   0.0000000000
C          C       0.48896   0.88827   0.00179   0.0000000000
C          C       0.52978   0.86822   0.95097   0.0000000000
C          C       0.53777   0.89577   0.96937   0.0000000000
H          H       0.46903   0.19033   0.55668   0.0000000000
H          H       0.45874   0.84757   0.98890   0.0000000000
H          H       0.47283   0.89559   0.02139   0.0000000000
H          H       0.54591   0.86086   0.93141   0.0000000000
H          H       0.55992   0.90895   0.96359   0.0000000000
N          N       0.01211   0.69063   0.08295   0.0000000000
C          C       0.99230   0.67870   0.06128   0.0000000000
C          C       0.00572   0.71956   0.10301   0.0000000000
B          B       0.02663   0.56334   0.98414   0.0000000000
O          O       0.04413   0.49356   0.55520   0.0000000000
C          C       0.37517   0.96406   0.22559   0.0000000000
H          H       0.39065   0.94210   0.22946   0.0000000000
H          H       0.36005   0.95939   0.20356   0.0000000000
H          H       0.68477   0.49635   0.27153   0.0000000000
C          C       0.00122   0.35050   0.45777   0.0000000000
C          C       0.01747   0.40595   0.49499   0.0000000000
C          C       0.98086   0.36084   0.48324   0.0000000000
C          C       0.98896   0.38827   0.50179   0.0000000000
C          C       0.02978   0.36822   0.45097   0.0000000000
C          C       0.03777   0.39577   0.46937   0.0000000000
H          H       0.96903   0.69033   0.05668   0.0000000000
H          H       0.95874   0.34757   0.48890   0.0000000000
H          H       0.97283   0.39559   0.52139   0.0000000000
H          H       0.04591   0.36086   0.43141   0.0000000000
H          H       0.05992   0.40895   0.46359   0.0000000000
N          N       0.48789   0.69063   0.91705   0.0000000000
C          C       0.50770   0.67870   0.93872   0.0000000000
C          C       0.49428   0.71956   0.89699   0.0000000000
B          B       0.47337   0.56334   0.01586   0.0000000000
O          O       0.45587   0.49356   0.44480   0.0000000000
C          C       0.12483   0.96406   0.77441   0.0000000000
H          H       0.10935   0.94210   0.77054   0.0000000000
H          H       0.13995   0.95939   0.79644   0.0000000000
H          H       0.81523   0.49635   0.72847   0.0000000000
C          C       0.49878   0.35050   0.54223   0.0000000000
C          C       0.48253   0.40595   0.50501   0.0000000000
C          C       0.51914   0.36084   0.51676   0.0000000000
C          C       0.51104   0.38827   0.49821   0.0000000000
C          C       0.47022   0.36822   0.54903   0.0000000000
C          C       0.46223   0.39577   0.53063   0.0000000000
H          H       0.53097   0.69033   0.94332   0.0000000000
H          H       0.54126   0.34757   0.51110   0.0000000000
H          H       0.52717   0.39559   0.47861   0.0000000000
H          H       0.45409   0.36086   0.56859   0.0000000000
H          H       0.44008   0.40895   0.53641   0.0000000000
N          N       0.98789   0.19063   0.41705   0.0000000000
C          C       0.00770   0.17870   0.43872   0.0000000000
C          C       0.99428   0.21956   0.39699   0.0000000000
B          B       0.97337   0.06334   0.51586   0.0000000000
O          O       0.95587   0.99356   0.94480   0.0000000000
C          C       0.62483   0.46406   0.27441   0.0000000000
H          H       0.60935   0.44210   0.27054   0.0000000000
H          H       0.63995   0.45939   0.29644   0.0000000000
H          H       0.31523   0.99635   0.22847   0.0000000000
C          C       0.99878   0.85050   0.04223   0.0000000000
C          C       0.98253   0.90595   0.00501   0.0000000000
C          C       0.01914   0.86084   0.01676   0.0000000000
C          C       0.01104   0.88827   0.99821   0.0000000000
C          C       0.97022   0.86822   0.04903   0.0000000000
C          C       0.96223   0.89577   0.03063   0.0000000000
H          H       0.03097   0.19033   0.44332   0.0000000000
H          H       0.04126   0.84757   0.01110   0.0000000000
H          H       0.02717   0.89559   0.97861   0.0000000000
H          H       0.95409   0.86086   0.06859   0.0000000000
H          H       0.94008   0.90895   0.03641   0.0000000000
N          N       0.98789   0.80937   0.08295   0.0000000000
C          C       0.00770   0.82130   0.06128   0.0000000000
C          C       0.99428   0.78044   0.10301   0.0000000000
B          B       0.97337   0.93666   0.98414   0.0000000000
O          O       0.95587   0.00644   0.55520   0.0000000000
C          C       0.62483   0.53594   0.22559   0.0000000000
H          H       0.60935   0.55790   0.22946   0.0000000000
H          H       0.63995   0.54061   0.20356   0.0000000000
H          H       0.31523   0.00365   0.27153   0.0000000000
C          C       0.99878   0.14950   0.45777   0.0000000000
C          C       0.98253   0.09405   0.49499   0.0000000000
C          C       0.01914   0.13916   0.48324   0.0000000000
C          C       0.01104   0.11173   0.50179   0.0000000000
C          C       0.97022   0.13178   0.45097   0.0000000000
C          C       0.96223   0.10423   0.46937   0.0000000000
H          H       0.03097   0.80967   0.05668   0.0000000000
H          H       0.04126   0.15243   0.48890   0.0000000000
H          H       0.02717   0.10441   0.52139   0.0000000000
H          H       0.95409   0.13914   0.43141   0.0000000000
H          H       0.94008   0.09105   0.46359   0.0000000000
N          N       0.48789   0.30937   0.58295   0.0000000000
C          C       0.50770   0.32130   0.56128   0.0000000000
C          C       0.49428   0.28044   0.60301   0.0000000000
B          B       0.47337   0.43666   0.48414   0.0000000000
O          O       0.45587   0.50644   0.05520   0.0000000000
C          C       0.12483   0.03594   0.72559   0.0000000000
H          H       0.10935   0.05790   0.72946   0.0000000000
H          H       0.13995   0.04061   0.70356   0.0000000000
H          H       0.81523   0.50365   0.77153   0.0000000000
C          C       0.49878   0.64950   0.95777   0.0000000000
C          C       0.48253   0.59405   0.99499   0.0000000000
C          C       0.51914   0.63916   0.98324   0.0000000000
C          C       0.51104   0.61173   0.00179   0.0000000000
C          C       0.47022   0.63178   0.95097   0.0000000000
C          C       0.46223   0.60423   0.96937   0.0000000000
H          H       0.53097   0.30967   0.55668   0.0000000000
H          H       0.54126   0.65243   0.98890   0.0000000000
H          H       0.52717   0.60441   0.02139   0.0000000000
H          H       0.45409   0.63914   0.93141   0.0000000000
H          H       0.44008   0.59105   0.96359   0.0000000000
N          N       0.01211   0.30937   0.41705   0.0000000000
C          C       0.99230   0.32130   0.43872   0.0000000000
C          C       0.00572   0.28044   0.39699   0.0000000000
B          B       0.02663   0.43666   0.51586   0.0000000000
O          O       0.04413   0.50644   0.94480   0.0000000000
C          C       0.37517   0.03594   0.27441   0.0000000000
H          H       0.39065   0.05790   0.27054   0.0000000000
H          H       0.36005   0.04061   0.29644   0.0000000000
H          H       0.68477   0.50365   0.22847   0.0000000000
C          C       0.00122   0.64950   0.04223   0.0000000000
C          C       0.01747   0.59405   0.00501   0.0000000000
C          C       0.98086   0.63916   0.01676   0.0000000000
C          C       0.98896   0.61173   0.99821   0.0000000000
C          C       0.02978   0.63178   0.04903   0.0000000000
C          C       0.03777   0.60423   0.03063   0.0000000000
H          H       0.96903   0.30967   0.44332   0.0000000000
H          H       0.95874   0.65243   0.01110   0.0000000000
H          H       0.97283   0.60441   0.97861   0.0000000000
H          H       0.04591   0.63914   0.06859   0.0000000000
H          H       0.05992   0.59105   0.03641   0.0000000000
N          N       0.51211   0.80937   0.91705   0.0000000000
C          C       0.49230   0.82130   0.93872   0.0000000000
C          C       0.50572   0.78044   0.89699   0.0000000000
B          B       0.52663   0.93666   0.01586   0.0000000000
O          O       0.54413   0.00644   0.44480   0.0000000000
C          C       0.87517   0.53594   0.77441   0.0000000000
H          H       0.89065   0.55790   0.77054   0.0000000000
H          H       0.86005   0.54061   0.79644   0.0000000000
H          H       0.18477   0.00365   0.72847   0.0000000000
C          C       0.50122   0.14950   0.54223   0.0000000000
C          C       0.51747   0.09405   0.50501   0.0000000000
C          C       0.48086   0.13916   0.51676   0.0000000000
C          C       0.48896   0.11173   0.49821   0.0000000000
C          C       0.52978   0.13178   0.54903   0.0000000000
C          C       0.53777   0.10423   0.53063   0.0000000000
H          H       0.46903   0.80967   0.94332   0.0000000000
H          H       0.45874   0.15243   0.51110   0.0000000000
H          H       0.47283   0.10441   0.47861   0.0000000000
H          H       0.54591   0.13914   0.56859   0.0000000000
H          H       0.55992   0.09105   0.53641   0.0000000000
N          N       0.19063   0.58295   0.51211   0.0000000000
C          C       0.17870   0.56128   0.49230   0.0000000000
C          C       0.21956   0.60301   0.50572   0.0000000000
B          B       0.06334   0.48414   0.52663   0.0000000000
O          O       0.99356   0.05520   0.54413   0.0000000000
C          C       0.46406   0.72559   0.87517   0.0000000000
H          H       0.44210   0.72946   0.89065   0.0000000000
H          H       0.45939   0.70356   0.86005   0.0000000000
H          H       0.99635   0.77153   0.18477   0.0000000000
C          C       0.85050   0.95777   0.50122   0.0000000000
C          C       0.90595   0.99499   0.51747   0.0000000000
C          C       0.86084   0.98324   0.48086   0.0000000000
C          C       0.88827   0.00179   0.48896   0.0000000000
C          C       0.86822   0.95097   0.52978   0.0000000000
C          C       0.89577   0.96937   0.53777   0.0000000000
H          H       0.19033   0.55668   0.46903   0.0000000000
H          H       0.84757   0.98890   0.45874   0.0000000000
H          H       0.89559   0.02139   0.47283   0.0000000000
H          H       0.86086   0.93141   0.54591   0.0000000000
H          H       0.90895   0.96359   0.55992   0.0000000000
N          N       0.69063   0.08295   0.01211   0.0000000000
C          C       0.67870   0.06128   0.99230   0.0000000000
C          C       0.71956   0.10301   0.00572   0.0000000000
B          B       0.56334   0.98414   0.02663   0.0000000000
O          O       0.49356   0.55520   0.04413   0.0000000000
C          C       0.96406   0.22559   0.37517   0.0000000000
H          H       0.94210   0.22946   0.39065   0.0000000000
H          H       0.95939   0.20356   0.36005   0.0000000000
H          H       0.49635   0.27153   0.68477   0.0000000000
C          C       0.35050   0.45777   0.00122   0.0000000000
C          C       0.40595   0.49499   0.01747   0.0000000000
C          C       0.36084   0.48324   0.98086   0.0000000000
C          C       0.38827   0.50179   0.98896   0.0000000000
C          C       0.36822   0.45097   0.02978   0.0000000000
C          C       0.39577   0.46937   0.03777   0.0000000000
H          H       0.69033   0.05668   0.96903   0.0000000000
H          H       0.34757   0.48890   0.95874   0.0000000000
H          H       0.39559   0.52139   0.97283   0.0000000000
H          H       0.36086   0.43141   0.04591   0.0000000000
H          H       0.40895   0.46359   0.05992   0.0000000000
N          N       0.69063   0.91705   0.48789   0.0000000000
C          C       0.67870   0.93872   0.50770   0.0000000000
C          C       0.71956   0.89699   0.49428   0.0000000000
B          B       0.56334   0.01586   0.47337   0.0000000000
O          O       0.49356   0.44480   0.45587   0.0000000000
C          C       0.96406   0.77441   0.12483   0.0000000000
H          H       0.94210   0.77054   0.10935   0.0000000000
H          H       0.95939   0.79644   0.13995   0.0000000000
H          H       0.49635   0.72847   0.81523   0.0000000000
C          C       0.35050   0.54223   0.49878   0.0000000000
C          C       0.40595   0.50501   0.48253   0.0000000000
C          C       0.36084   0.51676   0.51914   0.0000000000
C          C       0.38827   0.49821   0.51104   0.0000000000
C          C       0.36822   0.54903   0.47022   0.0000000000
C          C       0.39577   0.53063   0.46223   0.0000000000
H          H       0.69033   0.94332   0.53097   0.0000000000
H          H       0.34757   0.51110   0.54126   0.0000000000
H          H       0.39559   0.47861   0.52717   0.0000000000
H          H       0.36086   0.56859   0.45409   0.0000000000
H          H       0.40895   0.53641   0.44008   0.0000000000
N          N       0.19063   0.41705   0.98789   0.0000000000
C          C       0.17870   0.43872   0.00770   0.0000000000
C          C       0.21956   0.39699   0.99428   0.0000000000
B          B       0.06334   0.51586   0.97337   0.0000000000
O          O       0.99356   0.94480   0.95587   0.0000000000
C          C       0.46406   0.27441   0.62483   0.0000000000
H          H       0.44210   0.27054   0.60935   0.0000000000
H          H       0.45939   0.29644   0.63995   0.0000000000
H          H       0.99635   0.22847   0.31523   0.0000000000
C          C       0.85050   0.04223   0.99878   0.0000000000
C          C       0.90595   0.00501   0.98253   0.0000000000
C          C       0.86084   0.01676   0.01914   0.0000000000
C          C       0.88827   0.99821   0.01104   0.0000000000
C          C       0.86822   0.04903   0.97022   0.0000000000
C          C       0.89577   0.03063   0.96223   0.0000000000
H          H       0.19033   0.44332   0.03097   0.0000000000
H          H       0.84757   0.01110   0.04126   0.0000000000
H          H       0.89559   0.97861   0.02717   0.0000000000
H          H       0.86086   0.06859   0.95409   0.0000000000
H          H       0.90895   0.03641   0.94008   0.0000000000
N          N       0.80937   0.08295   0.98789   0.0000000000
C          C       0.82130   0.06128   0.00770   0.0000000000
C          C       0.78044   0.10301   0.99428   0.0000000000
B          B       0.93666   0.98414   0.97337   0.0000000000
O          O       0.00644   0.55520   0.95587   0.0000000000
C          C       0.53594   0.22559   0.62483   0.0000000000
H          H       0.55790   0.22946   0.60935   0.0000000000
H          H       0.54061   0.20356   0.63995   0.0000000000
H          H       0.00365   0.27153   0.31523   0.0000000000
C          C       0.14950   0.45777   0.99878   0.0000000000
C          C       0.09405   0.49499   0.98253   0.0000000000
C          C       0.13916   0.48324   0.01914   0.0000000000
C          C       0.11173   0.50179   0.01104   0.0000000000
C          C       0.13178   0.45097   0.97022   0.0000000000
C          C       0.10423   0.46937   0.96223   0.0000000000
H          H       0.80967   0.05668   0.03097   0.0000000000
H          H       0.15243   0.48890   0.04126   0.0000000000
H          H       0.10441   0.52139   0.02717   0.0000000000
H          H       0.13914   0.43141   0.95409   0.0000000000
H          H       0.09105   0.46359   0.94008   0.0000000000
N          N       0.30937   0.58295   0.48789   0.0000000000
C          C       0.32130   0.56128   0.50770   0.0000000000
C          C       0.28044   0.60301   0.49428   0.0000000000
B          B       0.43666   0.48414   0.47337   0.0000000000
O          O       0.50644   0.05520   0.45587   0.0000000000
C          C       0.03594   0.72559   0.12483   0.0000000000
H          H       0.05790   0.72946   0.10935   0.0000000000
H          H       0.04061   0.70356   0.13995   0.0000000000
H          H       0.50365   0.77153   0.81523   0.0000000000
C          C       0.64950   0.95777   0.49878   0.0000000000
C          C       0.59405   0.99499   0.48253   0.0000000000
C          C       0.63916   0.98324   0.51914   0.0000000000
C          C       0.61173   0.00179   0.51104   0.0000000000
C          C       0.63178   0.95097   0.47022   0.0000000000
C          C       0.60423   0.96937   0.46223   0.0000000000
H          H       0.30967   0.55668   0.53097   0.0000000000
H          H       0.65243   0.98890   0.54126   0.0000000000
H          H       0.60441   0.02139   0.52717   0.0000000000
H          H       0.63914   0.93141   0.45409   0.0000000000
H          H       0.59105   0.96359   0.44008   0.0000000000
N          N       0.30937   0.41705   0.01211   0.0000000000
C          C       0.32130   0.43872   0.99230   0.0000000000
C          C       0.28044   0.39699   0.00572   0.0000000000
B          B       0.43666   0.51586   0.02663   0.0000000000
O          O       0.50644   0.94480   0.04413   0.0000000000
C          C       0.03594   0.27441   0.37517   0.0000000000
H          H       0.05790   0.27054   0.39065   0.0000000000
H          H       0.04061   0.29644   0.36005   0.0000000000
H          H       0.50365   0.22847   0.68477   0.0000000000
C          C       0.64950   0.04223   0.00122   0.0000000000
C          C       0.59405   0.00501   0.01747   0.0000000000
C          C       0.63916   0.01676   0.98086   0.0000000000
C          C       0.61173   0.99821   0.98896   0.0000000000
C          C       0.63178   0.04903   0.02978   0.0000000000
C          C       0.60423   0.03063   0.03777   0.0000000000
H          H       0.30967   0.44332   0.96903   0.0000000000
H          H       0.65243   0.01110   0.95874   0.0000000000
H          H       0.60441   0.97861   0.97283   0.0000000000
H          H       0.63914   0.06859   0.04591   0.0000000000
H          H       0.59105   0.03641   0.05992   0.0000000000
N          N       0.80937   0.91705   0.51211   0.0000000000
C          C       0.82130   0.93872   0.49230   0.0000000000
C          C       0.78044   0.89699   0.50572   0.0000000000
B          B       0.93666   0.01586   0.52663   0.0000000000
O          O       0.00644   0.44480   0.54413   0.0000000000
C          C       0.53594   0.77441   0.87517   0.0000000000
H          H       0.55790   0.77054   0.89065   0.0000000000
H          H       0.54061   0.79644   0.86005   0.0000000000
H          H       0.00365   0.72847   0.18477   0.0000000000
C          C       0.14950   0.54223   0.50122   0.0000000000
C          C       0.09405   0.50501   0.51747   0.0000000000
C          C       0.13916   0.51676   0.48086   0.0000000000
C          C       0.11173   0.49821   0.48896   0.0000000000
C          C       0.13178   0.54903   0.52978   0.0000000000
C          C       0.10423   0.53063   0.53777   0.0000000000
H          H       0.80967   0.94332   0.46903   0.0000000000
H          H       0.15243   0.51110   0.45874   0.0000000000
H          H       0.10441   0.47861   0.47283   0.0000000000
H          H       0.13914   0.56859   0.54591   0.0000000000
H          H       0.09105   0.53641   0.55992   0.0000000000
C          C       0.25000   0.66870   0.50000   0.0000000000
C          C       0.25000   0.33130   0.00000   0.0000000000
C          C       0.75000   0.16870   0.00000   0.0000000000
C          C       0.75000   0.83130   0.50000   0.0000000000
C          C       0.50000   0.25000   0.66870   0.0000000000
C          C       0.00000   0.25000   0.33130   0.0000000000
C          C       0.00000   0.75000   0.16870   0.0000000000
C          C       0.50000   0.75000   0.83130   0.0000000000
C          C       0.66870   0.50000   0.25000   0.0000000000
C          C       0.33130   0.00000   0.25000   0.0000000000
C          C       0.16870   0.00000   0.75000   0.0000000000
C          C       0.83130   0.50000   0.75000   0.0000000000
C          C       0.91870   0.50000   0.75000   0.0000000000
C          C       0.58130   0.50000   0.25000   0.0000000000
C          C       0.41870   0.00000   0.25000   0.0000000000
C          C       0.08130   0.00000   0.75000   0.0000000000
C          C       0.50000   0.75000   0.91870   0.0000000000
C          C       0.50000   0.25000   0.58130   0.0000000000
C          C       0.00000   0.25000   0.41870   0.0000000000
C          C       0.00000   0.75000   0.08130   0.0000000000
C          C       0.75000   0.91870   0.50000   0.0000000000
C          C       0.25000   0.58130   0.50000   0.0000000000
C          C       0.25000   0.41870   0.00000   0.0000000000
C          C       0.75000   0.08130   0.00000   0.0000000000
