data_crystal
 
_cell_length_a    48.30200
_cell_length_b    48.30200
_cell_length_c    48.30200
_cell_angle_alpha 90.00000
_cell_angle_beta  90.00000
_cell_angle_gamma 90.00000
 
_symmetry_space_group_name_Hall 'P 1'
_symmetry_space_group_name_H-M  'P 1'
 
loop_
_symmetry_equiv_pos_as_xyz
 'x,y,z' 
 
loop_
_atom_site_label
_atom_site_type_symbol
_atom_site_fract_x
_atom_site_fract_y
_atom_site_fract_z
_atom_site_charge
C          C       0.37500   0.00000   0.25000   0.0000000000
C          C       0.12500   0.00000   0.75000   0.0000000000
C          C       0.62500   0.50000   0.25000   0.0000000000
C          C       0.87500   0.50000   0.75000   0.0000000000
C          C       0.25000   0.37500   0.00000   0.0000000000
C          C       0.75000   0.12500   0.00000   0.0000000000
C          C       0.25000   0.62500   0.50000   0.0000000000
C          C       0.75000   0.87500   0.50000   0.0000000000
C          C       0.00000   0.25000   0.37500   0.0000000000
C          C       0.00000   0.75000   0.12500   0.0000000000
C          C       0.50000   0.25000   0.62500   0.0000000000
C          C       0.50000   0.75000   0.87500   0.0000000000
C          C       0.35330   0.03812   0.21818   0.0000000000
C          C       0.85330   0.53812   0.71818   0.0000000000
C          C       0.14670   0.96188   0.71818   0.0000000000
C          C       0.64670   0.46188   0.21818   0.0000000000
C          C       0.64670   0.53812   0.28182   0.0000000000
C          C       0.14670   0.03812   0.78182   0.0000000000
C          C       0.85330   0.46188   0.78182   0.0000000000
C          C       0.35330   0.96188   0.28182   0.0000000000
C          C       0.21818   0.35330   0.03812   0.0000000000
C          C       0.71818   0.85330   0.53812   0.0000000000
C          C       0.71818   0.14670   0.96188   0.0000000000
C          C       0.21818   0.64670   0.46188   0.0000000000
C          C       0.28182   0.64670   0.53812   0.0000000000
C          C       0.78182   0.14670   0.03812   0.0000000000
C          C       0.78182   0.85330   0.46188   0.0000000000
C          C       0.28182   0.35330   0.96188   0.0000000000
C          C       0.03812   0.21818   0.35330   0.0000000000
C          C       0.53812   0.71818   0.85330   0.0000000000
C          C       0.96188   0.71818   0.14670   0.0000000000
C          C       0.46188   0.21818   0.64670   0.0000000000
C          C       0.53812   0.28182   0.64670   0.0000000000
C          C       0.03812   0.78182   0.14670   0.0000000000
C          C       0.46188   0.78182   0.85330   0.0000000000
C          C       0.96188   0.28182   0.35330   0.0000000000
C          C       0.28812   0.60330   0.46818   0.0000000000
C          C       0.78812   0.10330   0.96818   0.0000000000
C          C       0.21188   0.39670   0.96818   0.0000000000
C          C       0.71188   0.89670   0.46818   0.0000000000
C          C       0.78812   0.89670   0.53182   0.0000000000
C          C       0.28812   0.39670   0.03182   0.0000000000
C          C       0.71188   0.10330   0.03182   0.0000000000
C          C       0.21188   0.60330   0.53182   0.0000000000
C          C       0.60330   0.46818   0.28812   0.0000000000
C          C       0.10330   0.96818   0.78812   0.0000000000
C          C       0.39670   0.96818   0.21188   0.0000000000
C          C       0.89670   0.46818   0.71188   0.0000000000
C          C       0.89670   0.53182   0.78812   0.0000000000
C          C       0.39670   0.03182   0.28812   0.0000000000
C          C       0.10330   0.03182   0.71188   0.0000000000
C          C       0.60330   0.53182   0.21188   0.0000000000
C          C       0.46818   0.28812   0.60330   0.0000000000
C          C       0.96818   0.78812   0.10330   0.0000000000
C          C       0.96818   0.21188   0.39670   0.0000000000
C          C       0.46818   0.71188   0.89670   0.0000000000
C          C       0.53182   0.78812   0.89670   0.0000000000
C          C       0.03182   0.28812   0.39670   0.0000000000
C          C       0.03182   0.71188   0.10330   0.0000000000
C          C       0.53182   0.21188   0.60330   0.0000000000
C          C       0.35500   0.02405   0.24401   0.0000000000
C          C       0.85500   0.52405   0.74401   0.0000000000
C          C       0.14500   0.97595   0.74401   0.0000000000
C          C       0.64500   0.47595   0.24401   0.0000000000
C          C       0.64500   0.52405   0.25599   0.0000000000
C          C       0.14500   0.02405   0.75599   0.0000000000
C          C       0.85500   0.47595   0.75599   0.0000000000
C          C       0.35500   0.97595   0.25599   0.0000000000
C          C       0.24401   0.35500   0.02405   0.0000000000
C          C       0.74401   0.85500   0.52405   0.0000000000
C          C       0.74401   0.14500   0.97595   0.0000000000
C          C       0.24401   0.64500   0.47595   0.0000000000
C          C       0.25599   0.64500   0.52405   0.0000000000
C          C       0.75599   0.14500   0.02405   0.0000000000
C          C       0.75599   0.85500   0.47595   0.0000000000
C          C       0.25599   0.35500   0.97595   0.0000000000
C          C       0.02405   0.24401   0.35500   0.0000000000
C          C       0.52405   0.74401   0.85500   0.0000000000
C          C       0.97595   0.74401   0.14500   0.0000000000
C          C       0.47595   0.24401   0.64500   0.0000000000
C          C       0.52405   0.25599   0.64500   0.0000000000
C          C       0.02405   0.75599   0.14500   0.0000000000
C          C       0.47595   0.75599   0.85500   0.0000000000
C          C       0.97595   0.25599   0.35500   0.0000000000
C          C       0.27405   0.60500   0.49401   0.0000000000
C          C       0.77405   0.10500   0.99401   0.0000000000
C          C       0.22595   0.39500   0.99401   0.0000000000
C          C       0.72595   0.89500   0.49401   0.0000000000
C          C       0.77405   0.89500   0.50599   0.0000000000
C          C       0.27405   0.39500   0.00599   0.0000000000
C          C       0.72595   0.10500   0.00599   0.0000000000
C          C       0.22595   0.60500   0.50599   0.0000000000
C          C       0.60500   0.49401   0.27405   0.0000000000
C          C       0.10500   0.99401   0.77405   0.0000000000
C          C       0.39500   0.99401   0.22595   0.0000000000
C          C       0.89500   0.49401   0.72595   0.0000000000
C          C       0.89500   0.50599   0.77405   0.0000000000
C          C       0.39500   0.00599   0.27405   0.0000000000
C          C       0.10500   0.00599   0.72595   0.0000000000
C          C       0.60500   0.50599   0.22595   0.0000000000
C          C       0.49401   0.27405   0.60500   0.0000000000
C          C       0.99401   0.77405   0.10500   0.0000000000
C          C       0.99401   0.22595   0.39500   0.0000000000
C          C       0.49401   0.72595   0.89500   0.0000000000
C          C       0.50599   0.77405   0.89500   0.0000000000
C          C       0.00599   0.27405   0.39500   0.0000000000
C          C       0.00599   0.72595   0.10500   0.0000000000
C          C       0.50599   0.22595   0.60500   0.0000000000
C          C       0.33572   0.03270   0.26460   0.0000000000
C          C       0.83572   0.53270   0.76460   0.0000000000
C          C       0.16428   0.96730   0.76460   0.0000000000
C          C       0.66428   0.46730   0.26460   0.0000000000
C          C       0.66428   0.53270   0.23540   0.0000000000
C          C       0.16428   0.03270   0.73540   0.0000000000
C          C       0.83572   0.46730   0.73540   0.0000000000
C          C       0.33572   0.96730   0.23540   0.0000000000
C          C       0.26460   0.33572   0.03270   0.0000000000
C          C       0.76460   0.83572   0.53270   0.0000000000
C          C       0.76460   0.16428   0.96730   0.0000000000
C          C       0.26460   0.66428   0.46730   0.0000000000
C          C       0.23540   0.66428   0.53270   0.0000000000
C          C       0.73540   0.16428   0.03270   0.0000000000
C          C       0.73540   0.83572   0.46730   0.0000000000
C          C       0.23540   0.33572   0.96730   0.0000000000
C          C       0.03270   0.26460   0.33572   0.0000000000
C          C       0.53270   0.76460   0.83572   0.0000000000
C          C       0.96730   0.76460   0.16428   0.0000000000
C          C       0.46730   0.26460   0.66428   0.0000000000
C          C       0.53270   0.23540   0.66428   0.0000000000
C          C       0.03270   0.73540   0.16428   0.0000000000
C          C       0.46730   0.73540   0.83572   0.0000000000
C          C       0.96730   0.23540   0.33572   0.0000000000
C          C       0.28270   0.58572   0.51460   0.0000000000
C          C       0.78270   0.08572   0.01460   0.0000000000
C          C       0.21730   0.41428   0.01460   0.0000000000
C          C       0.71730   0.91428   0.51460   0.0000000000
C          C       0.78270   0.91428   0.48540   0.0000000000
C          C       0.28270   0.41428   0.98540   0.0000000000
C          C       0.71730   0.08572   0.98540   0.0000000000
C          C       0.21730   0.58572   0.48540   0.0000000000
C          C       0.58572   0.51460   0.28270   0.0000000000
C          C       0.08572   0.01460   0.78270   0.0000000000
C          C       0.41428   0.01460   0.21730   0.0000000000
C          C       0.91428   0.51460   0.71730   0.0000000000
C          C       0.91428   0.48540   0.78270   0.0000000000
C          C       0.41428   0.98540   0.28270   0.0000000000
C          C       0.08572   0.98540   0.71730   0.0000000000
C          C       0.58572   0.48540   0.21730   0.0000000000
C          C       0.51460   0.28270   0.58572   0.0000000000
C          C       0.01460   0.78270   0.08572   0.0000000000
C          C       0.01460   0.21730   0.41428   0.0000000000
C          C       0.51460   0.71730   0.91428   0.0000000000
C          C       0.48540   0.78270   0.91428   0.0000000000
C          C       0.98540   0.28270   0.41428   0.0000000000
C          C       0.98540   0.71730   0.08572   0.0000000000
C          C       0.48540   0.21730   0.58572   0.0000000000
C          C       0.31689   0.05450   0.26021   0.0000000000
C          C       0.81689   0.55450   0.76021   0.0000000000
C          C       0.18311   0.94550   0.76021   0.0000000000
C          C       0.68311   0.44550   0.26021   0.0000000000
C          C       0.68311   0.55450   0.23979   0.0000000000
C          C       0.18311   0.05450   0.73979   0.0000000000
C          C       0.81689   0.44550   0.73979   0.0000000000
C          C       0.31689   0.94550   0.23979   0.0000000000
C          C       0.26021   0.31689   0.05450   0.0000000000
C          C       0.76021   0.81689   0.55450   0.0000000000
C          C       0.76021   0.18311   0.94550   0.0000000000
C          C       0.26021   0.68311   0.44550   0.0000000000
C          C       0.23979   0.68311   0.55450   0.0000000000
C          C       0.73979   0.18311   0.05450   0.0000000000
C          C       0.73979   0.81689   0.44550   0.0000000000
C          C       0.23979   0.31689   0.94550   0.0000000000
C          C       0.05450   0.26021   0.31689   0.0000000000
C          C       0.55450   0.76021   0.81689   0.0000000000
C          C       0.94550   0.76021   0.18311   0.0000000000
C          C       0.44550   0.26021   0.68311   0.0000000000
C          C       0.55450   0.23979   0.68311   0.0000000000
C          C       0.05450   0.73979   0.18311   0.0000000000
C          C       0.44550   0.73979   0.81689   0.0000000000
C          C       0.94550   0.23979   0.31689   0.0000000000
C          C       0.30450   0.56689   0.51021   0.0000000000
C          C       0.80450   0.06689   0.01021   0.0000000000
C          C       0.19550   0.43311   0.01021   0.0000000000
C          C       0.69550   0.93311   0.51021   0.0000000000
C          C       0.80450   0.93311   0.48979   0.0000000000
C          C       0.30450   0.43311   0.98979   0.0000000000
C          C       0.69550   0.06689   0.98979   0.0000000000
C          C       0.19550   0.56689   0.48979   0.0000000000
C          C       0.56689   0.51021   0.30450   0.0000000000
C          C       0.06689   0.01021   0.80450   0.0000000000
C          C       0.43311   0.01021   0.19550   0.0000000000
C          C       0.93311   0.51021   0.69550   0.0000000000
C          C       0.93311   0.48979   0.80450   0.0000000000
C          C       0.43311   0.98979   0.30450   0.0000000000
C          C       0.06689   0.98979   0.69550   0.0000000000
C          C       0.56689   0.48979   0.19550   0.0000000000
C          C       0.51021   0.30450   0.56689   0.0000000000
C          C       0.01021   0.80450   0.06689   0.0000000000
C          C       0.01021   0.19550   0.43311   0.0000000000
C          C       0.51021   0.69550   0.93311   0.0000000000
C          C       0.48979   0.80450   0.93311   0.0000000000
C          C       0.98979   0.30450   0.43311   0.0000000000
C          C       0.98979   0.69550   0.06689   0.0000000000
C          C       0.48979   0.19550   0.56689   0.0000000000
C          C       0.31660   0.06883   0.23479   0.0000000000
C          C       0.81660   0.56883   0.73479   0.0000000000
C          C       0.18340   0.93117   0.73479   0.0000000000
C          C       0.68340   0.43117   0.23479   0.0000000000
C          C       0.68340   0.56883   0.26521   0.0000000000
C          C       0.18340   0.06883   0.76521   0.0000000000
C          C       0.81660   0.43117   0.76521   0.0000000000
C          C       0.31660   0.93117   0.26521   0.0000000000
C          C       0.23479   0.31660   0.06883   0.0000000000
C          C       0.73479   0.81660   0.56883   0.0000000000
C          C       0.73479   0.18340   0.93117   0.0000000000
C          C       0.23479   0.68340   0.43117   0.0000000000
C          C       0.26521   0.68340   0.56883   0.0000000000
C          C       0.76521   0.18340   0.06883   0.0000000000
C          C       0.76521   0.81660   0.43117   0.0000000000
C          C       0.26521   0.31660   0.93117   0.0000000000
C          C       0.06883   0.23479   0.31660   0.0000000000
C          C       0.56883   0.73479   0.81660   0.0000000000
C          C       0.93117   0.73479   0.18340   0.0000000000
C          C       0.43117   0.23479   0.68340   0.0000000000
C          C       0.56883   0.26521   0.68340   0.0000000000
C          C       0.06883   0.76521   0.18340   0.0000000000
C          C       0.43117   0.76521   0.81660   0.0000000000
C          C       0.93117   0.26521   0.31660   0.0000000000
C          C       0.31883   0.56660   0.48479   0.0000000000
C          C       0.81883   0.06660   0.98479   0.0000000000
C          C       0.18117   0.43340   0.98479   0.0000000000
C          C       0.68117   0.93340   0.48479   0.0000000000
C          C       0.81883   0.93340   0.51521   0.0000000000
C          C       0.31883   0.43340   0.01521   0.0000000000
C          C       0.68117   0.06660   0.01521   0.0000000000
C          C       0.18117   0.56660   0.51521   0.0000000000
C          C       0.56660   0.48479   0.31883   0.0000000000
C          C       0.06660   0.98479   0.81883   0.0000000000
C          C       0.43340   0.98479   0.18117   0.0000000000
C          C       0.93340   0.48479   0.68117   0.0000000000
C          C       0.93340   0.51521   0.81883   0.0000000000
C          C       0.43340   0.01521   0.31883   0.0000000000
C          C       0.06660   0.01521   0.68117   0.0000000000
C          C       0.56660   0.51521   0.18117   0.0000000000
C          C       0.48479   0.31883   0.56660   0.0000000000
C          C       0.98479   0.81883   0.06660   0.0000000000
C          C       0.98479   0.18117   0.43340   0.0000000000
C          C       0.48479   0.68117   0.93340   0.0000000000
C          C       0.51521   0.81883   0.93340   0.0000000000
C          C       0.01521   0.31883   0.43340   0.0000000000
C          C       0.01521   0.68117   0.06660   0.0000000000
C          C       0.51521   0.18117   0.56660   0.0000000000
C          C       0.33497   0.06032   0.21377   0.0000000000
C          C       0.83497   0.56032   0.71377   0.0000000000
C          C       0.16503   0.93968   0.71377   0.0000000000
C          C       0.66503   0.43968   0.21377   0.0000000000
C          C       0.66503   0.56032   0.28623   0.0000000000
C          C       0.16503   0.06032   0.78623   0.0000000000
C          C       0.83497   0.43968   0.78623   0.0000000000
C          C       0.33497   0.93968   0.28623   0.0000000000
C          C       0.21377   0.33497   0.06032   0.0000000000
C          C       0.71377   0.83497   0.56032   0.0000000000
C          C       0.71377   0.16503   0.93968   0.0000000000
C          C       0.21377   0.66503   0.43968   0.0000000000
C          C       0.28623   0.66503   0.56032   0.0000000000
C          C       0.78623   0.16503   0.06032   0.0000000000
C          C       0.78623   0.83497   0.43968   0.0000000000
C          C       0.28623   0.33497   0.93968   0.0000000000
C          C       0.06032   0.21377   0.33497   0.0000000000
C          C       0.56032   0.71377   0.83497   0.0000000000
C          C       0.93968   0.71377   0.16503   0.0000000000
C          C       0.43968   0.21377   0.66503   0.0000000000
C          C       0.56032   0.28623   0.66503   0.0000000000
C          C       0.06032   0.78623   0.16503   0.0000000000
C          C       0.43968   0.78623   0.83497   0.0000000000
C          C       0.93968   0.28623   0.33497   0.0000000000
C          C       0.31032   0.58497   0.46377   0.0000000000
C          C       0.81032   0.08497   0.96377   0.0000000000
C          C       0.18968   0.41503   0.96377   0.0000000000
C          C       0.68968   0.91503   0.46377   0.0000000000
C          C       0.81032   0.91503   0.53623   0.0000000000
C          C       0.31032   0.41503   0.03623   0.0000000000
C          C       0.68968   0.08497   0.03623   0.0000000000
C          C       0.18968   0.58497   0.53623   0.0000000000
C          C       0.58497   0.46377   0.31032   0.0000000000
C          C       0.08497   0.96377   0.81032   0.0000000000
C          C       0.41503   0.96377   0.18968   0.0000000000
C          C       0.91503   0.46377   0.68968   0.0000000000
C          C       0.91503   0.53623   0.81032   0.0000000000
C          C       0.41503   0.03623   0.31032   0.0000000000
C          C       0.08497   0.03623   0.68968   0.0000000000
C          C       0.58497   0.53623   0.18968   0.0000000000
C          C       0.46377   0.31032   0.58497   0.0000000000
C          C       0.96377   0.81032   0.08497   0.0000000000
C          C       0.96377   0.18968   0.41503   0.0000000000
C          C       0.46377   0.68968   0.91503   0.0000000000
C          C       0.53623   0.81032   0.91503   0.0000000000
C          C       0.03623   0.31032   0.41503   0.0000000000
C          C       0.03623   0.68968   0.08497   0.0000000000
C          C       0.53623   0.18968   0.58497   0.0000000000
H          H       0.36526   0.03236   0.20177   0.0000000000
H          H       0.86526   0.53236   0.70177   0.0000000000
H          H       0.13474   0.96764   0.70177   0.0000000000
H          H       0.63474   0.46764   0.20177   0.0000000000
H          H       0.63474   0.53236   0.29823   0.0000000000
H          H       0.13474   0.03236   0.79823   0.0000000000
H          H       0.86526   0.46764   0.79823   0.0000000000
H          H       0.36526   0.96764   0.29823   0.0000000000
H          H       0.20177   0.36526   0.03236   0.0000000000
H          H       0.70177   0.86526   0.53236   0.0000000000
H          H       0.70177   0.13474   0.96764   0.0000000000
H          H       0.20177   0.63474   0.46764   0.0000000000
H          H       0.29823   0.63474   0.53236   0.0000000000
H          H       0.79823   0.13474   0.03236   0.0000000000
H          H       0.79823   0.86526   0.46764   0.0000000000
H          H       0.29823   0.36526   0.96764   0.0000000000
H          H       0.03236   0.20177   0.36526   0.0000000000
H          H       0.53236   0.70177   0.86526   0.0000000000
H          H       0.96764   0.70177   0.13474   0.0000000000
H          H       0.46764   0.20177   0.63474   0.0000000000
H          H       0.53236   0.29823   0.63474   0.0000000000
H          H       0.03236   0.79823   0.13474   0.0000000000
H          H       0.46764   0.79823   0.86526   0.0000000000
H          H       0.96764   0.29823   0.36526   0.0000000000
H          H       0.28236   0.61526   0.45177   0.0000000000
H          H       0.78236   0.11526   0.95177   0.0000000000
H          H       0.21764   0.38474   0.95177   0.0000000000
H          H       0.71764   0.88474   0.45177   0.0000000000
H          H       0.78236   0.88474   0.54823   0.0000000000
H          H       0.28236   0.38474   0.04823   0.0000000000
H          H       0.71764   0.11526   0.04823   0.0000000000
H          H       0.21764   0.61526   0.54823   0.0000000000
H          H       0.61526   0.45177   0.28236   0.0000000000
H          H       0.11526   0.95177   0.78236   0.0000000000
H          H       0.38474   0.95177   0.21764   0.0000000000
H          H       0.88474   0.45177   0.71764   0.0000000000
H          H       0.88474   0.54823   0.78236   0.0000000000
H          H       0.38474   0.04823   0.28236   0.0000000000
H          H       0.11526   0.04823   0.71764   0.0000000000
H          H       0.61526   0.54823   0.21764   0.0000000000
H          H       0.45177   0.28236   0.61526   0.0000000000
H          H       0.95177   0.78236   0.11526   0.0000000000
H          H       0.95177   0.21764   0.38474   0.0000000000
H          H       0.45177   0.71764   0.88474   0.0000000000
H          H       0.54823   0.78236   0.88474   0.0000000000
H          H       0.04823   0.28236   0.38474   0.0000000000
H          H       0.04823   0.71764   0.11526   0.0000000000
H          H       0.54823   0.21764   0.61526   0.0000000000
H          H       0.33494   0.07017   0.19495   0.0000000000
H          H       0.83494   0.57017   0.69495   0.0000000000
H          H       0.16506   0.92983   0.69495   0.0000000000
H          H       0.66506   0.42983   0.19495   0.0000000000
H          H       0.66506   0.57017   0.30505   0.0000000000
H          H       0.16506   0.07017   0.80505   0.0000000000
H          H       0.83494   0.42983   0.80505   0.0000000000
H          H       0.33494   0.92983   0.30505   0.0000000000
H          H       0.19495   0.33494   0.07017   0.0000000000
H          H       0.69495   0.83494   0.57017   0.0000000000
H          H       0.69495   0.16506   0.92983   0.0000000000
H          H       0.19495   0.66506   0.42983   0.0000000000
H          H       0.30505   0.66506   0.57017   0.0000000000
H          H       0.80505   0.16506   0.07017   0.0000000000
H          H       0.80505   0.83494   0.42983   0.0000000000
H          H       0.30505   0.33494   0.92983   0.0000000000
H          H       0.07017   0.19495   0.33494   0.0000000000
H          H       0.57017   0.69495   0.83494   0.0000000000
H          H       0.92983   0.69495   0.16506   0.0000000000
H          H       0.42983   0.19495   0.66506   0.0000000000
H          H       0.57017   0.30505   0.66506   0.0000000000
H          H       0.07017   0.80505   0.16506   0.0000000000
H          H       0.42983   0.80505   0.83494   0.0000000000
H          H       0.92983   0.30505   0.33494   0.0000000000
H          H       0.32017   0.58494   0.44495   0.0000000000
H          H       0.82017   0.08494   0.94495   0.0000000000
H          H       0.17983   0.41506   0.94495   0.0000000000
H          H       0.67983   0.91506   0.44495   0.0000000000
H          H       0.82017   0.91506   0.55505   0.0000000000
H          H       0.32017   0.41506   0.05505   0.0000000000
H          H       0.67983   0.08494   0.05505   0.0000000000
H          H       0.17983   0.58494   0.55505   0.0000000000
H          H       0.58494   0.44495   0.32017   0.0000000000
H          H       0.08494   0.94495   0.82017   0.0000000000
H          H       0.41506   0.94495   0.17983   0.0000000000
H          H       0.91506   0.44495   0.67983   0.0000000000
H          H       0.91506   0.55505   0.82017   0.0000000000
H          H       0.41506   0.05505   0.32017   0.0000000000
H          H       0.08494   0.05505   0.67983   0.0000000000
H          H       0.58494   0.55505   0.17983   0.0000000000
H          H       0.44495   0.32017   0.58494   0.0000000000
H          H       0.94495   0.82017   0.08494   0.0000000000
H          H       0.94495   0.17983   0.41506   0.0000000000
H          H       0.44495   0.67983   0.91506   0.0000000000
H          H       0.55505   0.82017   0.91506   0.0000000000
H          H       0.05505   0.32017   0.41506   0.0000000000
H          H       0.05505   0.67983   0.08494   0.0000000000
H          H       0.55505   0.17983   0.58494   0.0000000000
H          H       0.33533   0.02293   0.28341   0.0000000000
H          H       0.83533   0.52293   0.78341   0.0000000000
H          H       0.16467   0.97707   0.78341   0.0000000000
H          H       0.66467   0.47707   0.28341   0.0000000000
H          H       0.66467   0.52293   0.21659   0.0000000000
H          H       0.16467   0.02293   0.71659   0.0000000000
H          H       0.83533   0.47707   0.71659   0.0000000000
H          H       0.33533   0.97707   0.21659   0.0000000000
H          H       0.28341   0.33533   0.02293   0.0000000000
H          H       0.78341   0.83533   0.52293   0.0000000000
H          H       0.78341   0.16467   0.97707   0.0000000000
H          H       0.28341   0.66467   0.47707   0.0000000000
H          H       0.21659   0.66467   0.52293   0.0000000000
H          H       0.71659   0.16467   0.02293   0.0000000000
H          H       0.71659   0.83533   0.47707   0.0000000000
H          H       0.21659   0.33533   0.97707   0.0000000000
H          H       0.02293   0.28341   0.33533   0.0000000000
H          H       0.52293   0.78341   0.83533   0.0000000000
H          H       0.97707   0.78341   0.16467   0.0000000000
H          H       0.47707   0.28341   0.66467   0.0000000000
H          H       0.52293   0.21659   0.66467   0.0000000000
H          H       0.02293   0.71659   0.16467   0.0000000000
H          H       0.47707   0.71659   0.83533   0.0000000000
H          H       0.97707   0.21659   0.33533   0.0000000000
H          H       0.27293   0.58533   0.53341   0.0000000000
H          H       0.77293   0.08533   0.03341   0.0000000000
H          H       0.22707   0.41467   0.03341   0.0000000000
H          H       0.72707   0.91467   0.53341   0.0000000000
H          H       0.77293   0.91467   0.46659   0.0000000000
H          H       0.27293   0.41467   0.96659   0.0000000000
H          H       0.72707   0.08533   0.96659   0.0000000000
H          H       0.22707   0.58533   0.46659   0.0000000000
H          H       0.58533   0.53341   0.27293   0.0000000000
H          H       0.08533   0.03341   0.77293   0.0000000000
H          H       0.41467   0.03341   0.22707   0.0000000000
H          H       0.91467   0.53341   0.72707   0.0000000000
H          H       0.91467   0.46659   0.77293   0.0000000000
H          H       0.41467   0.96659   0.27293   0.0000000000
H          H       0.08533   0.96659   0.72707   0.0000000000
H          H       0.58533   0.46659   0.22707   0.0000000000
H          H       0.53341   0.27293   0.58533   0.0000000000
H          H       0.03341   0.77293   0.08533   0.0000000000
H          H       0.03341   0.22707   0.41467   0.0000000000
H          H       0.53341   0.72707   0.91467   0.0000000000
H          H       0.46659   0.77293   0.91467   0.0000000000
H          H       0.96659   0.27293   0.41467   0.0000000000
H          H       0.96659   0.72707   0.08533   0.0000000000
H          H       0.46659   0.22707   0.58533   0.0000000000
H          H       0.30346   0.05996   0.27572   0.0000000000
H          H       0.80346   0.55996   0.77572   0.0000000000
H          H       0.19654   0.94004   0.77572   0.0000000000
H          H       0.69654   0.44004   0.27572   0.0000000000
H          H       0.69654   0.55996   0.22428   0.0000000000
H          H       0.19654   0.05996   0.72428   0.0000000000
H          H       0.80346   0.44004   0.72428   0.0000000000
H          H       0.30346   0.94004   0.22428   0.0000000000
H          H       0.27572   0.30346   0.05996   0.0000000000
H          H       0.77572   0.80346   0.55996   0.0000000000
H          H       0.77572   0.19654   0.94004   0.0000000000
H          H       0.27572   0.69654   0.44004   0.0000000000
H          H       0.22428   0.69654   0.55996   0.0000000000
H          H       0.72428   0.19654   0.05996   0.0000000000
H          H       0.72428   0.80346   0.44004   0.0000000000
H          H       0.22428   0.30346   0.94004   0.0000000000
H          H       0.05996   0.27572   0.30346   0.0000000000
H          H       0.55996   0.77572   0.80346   0.0000000000
H          H       0.94004   0.77572   0.19654   0.0000000000
H          H       0.44004   0.27572   0.69654   0.0000000000
H          H       0.55996   0.22428   0.69654   0.0000000000
H          H       0.05996   0.72428   0.19654   0.0000000000
H          H       0.44004   0.72428   0.80346   0.0000000000
H          H       0.94004   0.22428   0.30346   0.0000000000
H          H       0.30996   0.55346   0.52572   0.0000000000
H          H       0.80996   0.05346   0.02572   0.0000000000
H          H       0.19004   0.44654   0.02572   0.0000000000
H          H       0.69004   0.94654   0.52572   0.0000000000
H          H       0.80996   0.94654   0.47428   0.0000000000
H          H       0.30996   0.44654   0.97428   0.0000000000
H          H       0.69004   0.05346   0.97428   0.0000000000
H          H       0.19004   0.55346   0.47428   0.0000000000
H          H       0.55346   0.52572   0.30996   0.0000000000
H          H       0.05346   0.02572   0.80996   0.0000000000
H          H       0.44654   0.02572   0.19004   0.0000000000
H          H       0.94654   0.52572   0.69004   0.0000000000
H          H       0.94654   0.47428   0.80996   0.0000000000
H          H       0.44654   0.97428   0.30996   0.0000000000
H          H       0.05346   0.97428   0.69004   0.0000000000
H          H       0.55346   0.47428   0.19004   0.0000000000
H          H       0.52572   0.30996   0.55346   0.0000000000
H          H       0.02572   0.80996   0.05346   0.0000000000
H          H       0.02572   0.19004   0.44654   0.0000000000
H          H       0.52572   0.69004   0.94654   0.0000000000
H          H       0.47428   0.80996   0.94654   0.0000000000
H          H       0.97428   0.30996   0.44654   0.0000000000
H          H       0.97428   0.69004   0.05346   0.0000000000
H          H       0.47428   0.19004   0.55346   0.0000000000
C          C       0.47211   0.03889   0.37912   0.0000000000
C          C       0.97211   0.53889   0.87912   0.0000000000
C          C       0.02789   0.96111   0.87912   0.0000000000
C          C       0.52789   0.46111   0.37912   0.0000000000
C          C       0.52789   0.53889   0.12088   0.0000000000
C          C       0.02789   0.03889   0.62088   0.0000000000
C          C       0.97211   0.46111   0.62088   0.0000000000
C          C       0.47211   0.96111   0.12088   0.0000000000
C          C       0.37912   0.47211   0.03889   0.0000000000
C          C       0.87912   0.97211   0.53889   0.0000000000
C          C       0.87912   0.02789   0.96111   0.0000000000
C          C       0.37912   0.52789   0.46111   0.0000000000
C          C       0.12088   0.52789   0.53889   0.0000000000
C          C       0.62088   0.02789   0.03889   0.0000000000
C          C       0.62088   0.97211   0.46111   0.0000000000
C          C       0.12088   0.47211   0.96111   0.0000000000
C          C       0.03889   0.37912   0.47211   0.0000000000
C          C       0.53889   0.87912   0.97211   0.0000000000
C          C       0.96111   0.87912   0.02789   0.0000000000
C          C       0.46111   0.37912   0.52789   0.0000000000
C          C       0.53889   0.12088   0.52789   0.0000000000
C          C       0.03889   0.62088   0.02789   0.0000000000
C          C       0.46111   0.62088   0.97211   0.0000000000
C          C       0.96111   0.12088   0.47211   0.0000000000
C          C       0.28889   0.72211   0.62912   0.0000000000
C          C       0.78889   0.22211   0.12912   0.0000000000
C          C       0.21111   0.27789   0.12912   0.0000000000
C          C       0.71111   0.77789   0.62912   0.0000000000
C          C       0.78889   0.77789   0.37088   0.0000000000
C          C       0.28889   0.27789   0.87088   0.0000000000
C          C       0.71111   0.22211   0.87088   0.0000000000
C          C       0.21111   0.72211   0.37088   0.0000000000
C          C       0.72211   0.62912   0.28889   0.0000000000
C          C       0.22211   0.12912   0.78889   0.0000000000
C          C       0.27789   0.12912   0.21111   0.0000000000
C          C       0.77789   0.62912   0.71111   0.0000000000
C          C       0.77789   0.37088   0.78889   0.0000000000
C          C       0.27789   0.87088   0.28889   0.0000000000
C          C       0.22211   0.87088   0.71111   0.0000000000
C          C       0.72211   0.37088   0.21111   0.0000000000
C          C       0.62912   0.28889   0.72211   0.0000000000
C          C       0.12912   0.78889   0.22211   0.0000000000
C          C       0.12912   0.21111   0.27789   0.0000000000
C          C       0.62912   0.71111   0.77789   0.0000000000
C          C       0.37088   0.78889   0.77789   0.0000000000
C          C       0.87088   0.28889   0.27789   0.0000000000
C          C       0.87088   0.71111   0.22211   0.0000000000
C          C       0.37088   0.21111   0.72211   0.0000000000
C          C       0.47961   0.05515   0.40192   0.0000000000
C          C       0.97961   0.55515   0.90192   0.0000000000
C          C       0.02039   0.94485   0.90192   0.0000000000
C          C       0.52039   0.44485   0.40192   0.0000000000
C          C       0.52039   0.55515   0.09808   0.0000000000
C          C       0.02039   0.05515   0.59808   0.0000000000
C          C       0.97961   0.44485   0.59808   0.0000000000
C          C       0.47961   0.94485   0.09808   0.0000000000
C          C       0.40192   0.47961   0.05515   0.0000000000
C          C       0.90192   0.97961   0.55515   0.0000000000
C          C       0.90192   0.02039   0.94485   0.0000000000
C          C       0.40192   0.52039   0.44485   0.0000000000
C          C       0.09808   0.52039   0.55515   0.0000000000
C          C       0.59808   0.02039   0.05515   0.0000000000
C          C       0.59808   0.97961   0.44485   0.0000000000
C          C       0.09808   0.47961   0.94485   0.0000000000
C          C       0.05515   0.40192   0.47961   0.0000000000
C          C       0.55515   0.90192   0.97961   0.0000000000
C          C       0.94485   0.90192   0.02039   0.0000000000
C          C       0.44485   0.40192   0.52039   0.0000000000
C          C       0.55515   0.09808   0.52039   0.0000000000
C          C       0.05515   0.59808   0.02039   0.0000000000
C          C       0.44485   0.59808   0.97961   0.0000000000
C          C       0.94485   0.09808   0.47961   0.0000000000
C          C       0.30515   0.72961   0.65192   0.0000000000
C          C       0.80515   0.22961   0.15192   0.0000000000
C          C       0.19485   0.27039   0.15192   0.0000000000
C          C       0.69485   0.77039   0.65192   0.0000000000
C          C       0.80515   0.77039   0.34808   0.0000000000
C          C       0.30515   0.27039   0.84808   0.0000000000
C          C       0.69485   0.22961   0.84808   0.0000000000
C          C       0.19485   0.72961   0.34808   0.0000000000
C          C       0.72961   0.65192   0.30515   0.0000000000
C          C       0.22961   0.15192   0.80515   0.0000000000
C          C       0.27039   0.15192   0.19485   0.0000000000
C          C       0.77039   0.65192   0.69485   0.0000000000
C          C       0.77039   0.34808   0.80515   0.0000000000
C          C       0.27039   0.84808   0.30515   0.0000000000
C          C       0.22961   0.84808   0.69485   0.0000000000
C          C       0.72961   0.34808   0.19485   0.0000000000
C          C       0.65192   0.30515   0.72961   0.0000000000
C          C       0.15192   0.80515   0.22961   0.0000000000
C          C       0.15192   0.19485   0.27039   0.0000000000
C          C       0.65192   0.69485   0.77039   0.0000000000
C          C       0.34808   0.80515   0.77039   0.0000000000
C          C       0.84808   0.30515   0.27039   0.0000000000
C          C       0.84808   0.69485   0.22961   0.0000000000
C          C       0.34808   0.19485   0.72961   0.0000000000
C          C       0.50881   0.06219   0.43986   0.0000000000
C          C       0.00881   0.56219   0.93986   0.0000000000
C          C       0.99119   0.93781   0.93986   0.0000000000
C          C       0.49119   0.43781   0.43986   0.0000000000
C          C       0.49119   0.56219   0.06014   0.0000000000
C          C       0.99119   0.06219   0.56014   0.0000000000
C          C       0.00881   0.43781   0.56014   0.0000000000
C          C       0.50881   0.93781   0.06014   0.0000000000
C          C       0.43986   0.50881   0.06219   0.0000000000
C          C       0.93986   0.00881   0.56219   0.0000000000
C          C       0.93986   0.99119   0.93781   0.0000000000
C          C       0.43986   0.49119   0.43781   0.0000000000
C          C       0.06014   0.49119   0.56219   0.0000000000
C          C       0.56014   0.99119   0.06219   0.0000000000
C          C       0.56014   0.00881   0.43781   0.0000000000
C          C       0.06014   0.50881   0.93781   0.0000000000
C          C       0.06219   0.43986   0.50881   0.0000000000
C          C       0.56219   0.93986   0.00881   0.0000000000
C          C       0.93781   0.93986   0.99119   0.0000000000
C          C       0.43781   0.43986   0.49119   0.0000000000
C          C       0.56219   0.06014   0.49119   0.0000000000
C          C       0.06219   0.56014   0.99119   0.0000000000
C          C       0.43781   0.56014   0.00881   0.0000000000
C          C       0.93781   0.06014   0.50881   0.0000000000
C          C       0.31219   0.75881   0.68986   0.0000000000
C          C       0.81219   0.25881   0.18986   0.0000000000
C          C       0.18781   0.24119   0.18986   0.0000000000
C          C       0.68781   0.74119   0.68986   0.0000000000
C          C       0.81219   0.74119   0.31014   0.0000000000
C          C       0.31219   0.24119   0.81014   0.0000000000
C          C       0.68781   0.25881   0.81014   0.0000000000
C          C       0.18781   0.75881   0.31014   0.0000000000
C          C       0.75881   0.68986   0.31219   0.0000000000
C          C       0.25881   0.18986   0.81219   0.0000000000
C          C       0.24119   0.18986   0.18781   0.0000000000
C          C       0.74119   0.68986   0.68781   0.0000000000
C          C       0.74119   0.31014   0.81219   0.0000000000
C          C       0.24119   0.81014   0.31219   0.0000000000
C          C       0.25881   0.81014   0.68781   0.0000000000
C          C       0.75881   0.31014   0.18781   0.0000000000
C          C       0.68986   0.31219   0.75881   0.0000000000
C          C       0.18986   0.81219   0.25881   0.0000000000
C          C       0.18986   0.18781   0.24119   0.0000000000
C          C       0.68986   0.68781   0.74119   0.0000000000
C          C       0.31014   0.81219   0.74119   0.0000000000
C          C       0.81014   0.31219   0.24119   0.0000000000
C          C       0.81014   0.68781   0.25881   0.0000000000
C          C       0.31014   0.18781   0.75881   0.0000000000
C          C       0.50262   0.04704   0.41821   0.0000000000
C          C       0.00262   0.54704   0.91821   0.0000000000
C          C       0.99738   0.95296   0.91821   0.0000000000
C          C       0.49738   0.45296   0.41821   0.0000000000
C          C       0.49738   0.54704   0.08179   0.0000000000
C          C       0.99738   0.04704   0.58179   0.0000000000
C          C       0.00262   0.45296   0.58179   0.0000000000
C          C       0.50262   0.95296   0.08179   0.0000000000
C          C       0.41821   0.50262   0.04704   0.0000000000
C          C       0.91821   0.00262   0.54704   0.0000000000
C          C       0.91821   0.99738   0.95296   0.0000000000
C          C       0.41821   0.49738   0.45296   0.0000000000
C          C       0.08179   0.49738   0.54704   0.0000000000
C          C       0.58179   0.99738   0.04704   0.0000000000
C          C       0.58179   0.00262   0.45296   0.0000000000
C          C       0.08179   0.50262   0.95296   0.0000000000
C          C       0.04704   0.41821   0.50262   0.0000000000
C          C       0.54704   0.91821   0.00262   0.0000000000
C          C       0.95296   0.91821   0.99738   0.0000000000
C          C       0.45296   0.41821   0.49738   0.0000000000
C          C       0.54704   0.08179   0.49738   0.0000000000
C          C       0.04704   0.58179   0.99738   0.0000000000
C          C       0.45296   0.58179   0.00262   0.0000000000
C          C       0.95296   0.08179   0.50262   0.0000000000
C          C       0.29704   0.75262   0.66821   0.0000000000
C          C       0.79704   0.25262   0.16821   0.0000000000
C          C       0.20296   0.24738   0.16821   0.0000000000
C          C       0.70296   0.74738   0.66821   0.0000000000
C          C       0.79704   0.74738   0.33179   0.0000000000
C          C       0.29704   0.24738   0.83179   0.0000000000
C          C       0.70296   0.25262   0.83179   0.0000000000
C          C       0.20296   0.75262   0.33179   0.0000000000
C          C       0.75262   0.66821   0.29704   0.0000000000
C          C       0.25262   0.16821   0.79704   0.0000000000
C          C       0.24738   0.16821   0.20296   0.0000000000
C          C       0.74738   0.66821   0.70296   0.0000000000
C          C       0.74738   0.33179   0.79704   0.0000000000
C          C       0.24738   0.83179   0.29704   0.0000000000
C          C       0.25262   0.83179   0.70296   0.0000000000
C          C       0.75262   0.33179   0.20296   0.0000000000
C          C       0.66821   0.29704   0.75262   0.0000000000
C          C       0.16821   0.79704   0.25262   0.0000000000
C          C       0.16821   0.20296   0.24738   0.0000000000
C          C       0.66821   0.70296   0.74738   0.0000000000
C          C       0.33179   0.79704   0.74738   0.0000000000
C          C       0.83179   0.29704   0.24738   0.0000000000
C          C       0.83179   0.70296   0.25262   0.0000000000
C          C       0.33179   0.20296   0.75262   0.0000000000
O          O       0.45112   0.04315   0.36126   0.0000000000
O          O       0.95112   0.54315   0.86126   0.0000000000
O          O       0.04888   0.95685   0.86126   0.0000000000
O          O       0.54888   0.45685   0.36126   0.0000000000
O          O       0.54888   0.54315   0.13874   0.0000000000
O          O       0.04888   0.04315   0.63874   0.0000000000
O          O       0.95112   0.45685   0.63874   0.0000000000
O          O       0.45112   0.95685   0.13874   0.0000000000
O          O       0.36126   0.45112   0.04315   0.0000000000
O          O       0.86126   0.95112   0.54315   0.0000000000
O          O       0.86126   0.04888   0.95685   0.0000000000
O          O       0.36126   0.54888   0.45685   0.0000000000
O          O       0.13874   0.54888   0.54315   0.0000000000
O          O       0.63874   0.04888   0.04315   0.0000000000
O          O       0.63874   0.95112   0.45685   0.0000000000
O          O       0.13874   0.45112   0.95685   0.0000000000
O          O       0.04315   0.36126   0.45112   0.0000000000
O          O       0.54315   0.86126   0.95112   0.0000000000
O          O       0.95685   0.86126   0.04888   0.0000000000
O          O       0.45685   0.36126   0.54888   0.0000000000
O          O       0.54315   0.13874   0.54888   0.0000000000
O          O       0.04315   0.63874   0.04888   0.0000000000
O          O       0.45685   0.63874   0.95112   0.0000000000
O          O       0.95685   0.13874   0.45112   0.0000000000
O          O       0.29315   0.70112   0.61126   0.0000000000
O          O       0.79315   0.20112   0.11126   0.0000000000
O          O       0.20685   0.29888   0.11126   0.0000000000
O          O       0.70685   0.79888   0.61126   0.0000000000
O          O       0.79315   0.79888   0.38874   0.0000000000
O          O       0.29315   0.29888   0.88874   0.0000000000
O          O       0.70685   0.20112   0.88874   0.0000000000
O          O       0.20685   0.70112   0.38874   0.0000000000
O          O       0.70112   0.61126   0.29315   0.0000000000
O          O       0.20112   0.11126   0.79315   0.0000000000
O          O       0.29888   0.11126   0.20685   0.0000000000
O          O       0.79888   0.61126   0.70685   0.0000000000
O          O       0.79888   0.38874   0.79315   0.0000000000
O          O       0.29888   0.88874   0.29315   0.0000000000
O          O       0.20112   0.88874   0.70685   0.0000000000
O          O       0.70112   0.38874   0.20685   0.0000000000
O          O       0.61126   0.29315   0.70112   0.0000000000
O          O       0.11126   0.79315   0.20112   0.0000000000
O          O       0.11126   0.20685   0.29888   0.0000000000
O          O       0.61126   0.70685   0.79888   0.0000000000
O          O       0.38874   0.79315   0.79888   0.0000000000
O          O       0.88874   0.29315   0.29888   0.0000000000
O          O       0.88874   0.70685   0.20112   0.0000000000
O          O       0.38874   0.20685   0.70112   0.0000000000
C          C       0.51488   0.12760   0.51330   0.0000000000
C          C       0.01488   0.62760   0.01330   0.0000000000
C          C       0.98512   0.87240   0.01330   0.0000000000
C          C       0.48512   0.37240   0.51330   0.0000000000
C          C       0.48512   0.62760   0.98670   0.0000000000
C          C       0.98512   0.12760   0.48670   0.0000000000
C          C       0.01488   0.37240   0.48670   0.0000000000
C          C       0.51488   0.87240   0.98670   0.0000000000
C          C       0.51330   0.51488   0.12760   0.0000000000
C          C       0.01330   0.01488   0.62760   0.0000000000
C          C       0.01330   0.98512   0.87240   0.0000000000
C          C       0.51330   0.48512   0.37240   0.0000000000
C          C       0.98670   0.48512   0.62760   0.0000000000
C          C       0.48670   0.98512   0.12760   0.0000000000
C          C       0.48670   0.01488   0.37240   0.0000000000
C          C       0.98670   0.51488   0.87240   0.0000000000
C          C       0.12760   0.51330   0.51488   0.0000000000
C          C       0.62760   0.01330   0.01488   0.0000000000
C          C       0.87240   0.01330   0.98512   0.0000000000
C          C       0.37240   0.51330   0.48512   0.0000000000
C          C       0.62760   0.98670   0.48512   0.0000000000
C          C       0.12760   0.48670   0.98512   0.0000000000
C          C       0.37240   0.48670   0.01488   0.0000000000
C          C       0.87240   0.98670   0.51488   0.0000000000
C          C       0.37760   0.76488   0.76330   0.0000000000
C          C       0.87760   0.26488   0.26330   0.0000000000
C          C       0.12240   0.23512   0.26330   0.0000000000
C          C       0.62240   0.73512   0.76330   0.0000000000
C          C       0.87760   0.73512   0.23670   0.0000000000
C          C       0.37760   0.23512   0.73670   0.0000000000
C          C       0.62240   0.26488   0.73670   0.0000000000
C          C       0.12240   0.76488   0.23670   0.0000000000
C          C       0.76488   0.76330   0.37760   0.0000000000
C          C       0.26488   0.26330   0.87760   0.0000000000
C          C       0.23512   0.26330   0.12240   0.0000000000
C          C       0.73512   0.76330   0.62240   0.0000000000
C          C       0.73512   0.23670   0.87760   0.0000000000
C          C       0.23512   0.73670   0.37760   0.0000000000
C          C       0.26488   0.73670   0.62240   0.0000000000
C          C       0.76488   0.23670   0.12240   0.0000000000
C          C       0.76330   0.37760   0.76488   0.0000000000
C          C       0.26330   0.87760   0.26488   0.0000000000
C          C       0.26330   0.12240   0.23512   0.0000000000
C          C       0.76330   0.62240   0.73512   0.0000000000
C          C       0.23670   0.87760   0.73512   0.0000000000
C          C       0.73670   0.37760   0.23512   0.0000000000
C          C       0.73670   0.62240   0.26488   0.0000000000
C          C       0.23670   0.12240   0.76488   0.0000000000
C          C       0.50660   0.11213   0.49021   0.0000000000
C          C       0.00660   0.61213   0.99021   0.0000000000
C          C       0.99340   0.88787   0.99021   0.0000000000
C          C       0.49340   0.38787   0.49021   0.0000000000
C          C       0.49340   0.61213   0.00979   0.0000000000
C          C       0.99340   0.11213   0.50979   0.0000000000
C          C       0.00660   0.38787   0.50979   0.0000000000
C          C       0.50660   0.88787   0.00979   0.0000000000
C          C       0.49021   0.50660   0.11213   0.0000000000
C          C       0.99021   0.00660   0.61213   0.0000000000
C          C       0.99021   0.99340   0.88787   0.0000000000
C          C       0.49021   0.49340   0.38787   0.0000000000
C          C       0.00979   0.49340   0.61213   0.0000000000
C          C       0.50979   0.99340   0.11213   0.0000000000
C          C       0.50979   0.00660   0.38787   0.0000000000
C          C       0.00979   0.50660   0.88787   0.0000000000
C          C       0.11213   0.49021   0.50660   0.0000000000
C          C       0.61213   0.99021   0.00660   0.0000000000
C          C       0.88787   0.99021   0.99340   0.0000000000
C          C       0.38787   0.49021   0.49340   0.0000000000
C          C       0.61213   0.00979   0.49340   0.0000000000
C          C       0.11213   0.50979   0.99340   0.0000000000
C          C       0.38787   0.50979   0.00660   0.0000000000
C          C       0.88787   0.00979   0.50660   0.0000000000
C          C       0.36213   0.75660   0.74021   0.0000000000
C          C       0.86213   0.25660   0.24021   0.0000000000
C          C       0.13787   0.24340   0.24021   0.0000000000
C          C       0.63787   0.74340   0.74021   0.0000000000
C          C       0.86213   0.74340   0.25979   0.0000000000
C          C       0.36213   0.24340   0.75979   0.0000000000
C          C       0.63787   0.25660   0.75979   0.0000000000
C          C       0.13787   0.75660   0.25979   0.0000000000
C          C       0.75660   0.74021   0.36213   0.0000000000
C          C       0.25660   0.24021   0.86213   0.0000000000
C          C       0.24340   0.24021   0.13787   0.0000000000
C          C       0.74340   0.74021   0.63787   0.0000000000
C          C       0.74340   0.25979   0.86213   0.0000000000
C          C       0.24340   0.75979   0.36213   0.0000000000
C          C       0.25660   0.75979   0.63787   0.0000000000
C          C       0.75660   0.25979   0.13787   0.0000000000
C          C       0.74021   0.36213   0.75660   0.0000000000
C          C       0.24021   0.86213   0.25660   0.0000000000
C          C       0.24021   0.13787   0.24340   0.0000000000
C          C       0.74021   0.63787   0.74340   0.0000000000
C          C       0.25979   0.86213   0.74340   0.0000000000
C          C       0.75979   0.36213   0.24340   0.0000000000
C          C       0.75979   0.63787   0.25660   0.0000000000
C          C       0.25979   0.13787   0.75660   0.0000000000
C          C       0.51507   0.07533   0.45987   0.0000000000
C          C       0.01507   0.57533   0.95987   0.0000000000
C          C       0.98493   0.92467   0.95987   0.0000000000
C          C       0.48493   0.42467   0.45987   0.0000000000
C          C       0.48493   0.57533   0.04013   0.0000000000
C          C       0.98493   0.07533   0.54013   0.0000000000
C          C       0.01507   0.42467   0.54013   0.0000000000
C          C       0.51507   0.92467   0.04013   0.0000000000
C          C       0.45987   0.51507   0.07533   0.0000000000
C          C       0.95987   0.01507   0.57533   0.0000000000
C          C       0.95987   0.98493   0.92467   0.0000000000
C          C       0.45987   0.48493   0.42467   0.0000000000
C          C       0.04013   0.48493   0.57533   0.0000000000
C          C       0.54013   0.98493   0.07533   0.0000000000
C          C       0.54013   0.01507   0.42467   0.0000000000
C          C       0.04013   0.51507   0.92467   0.0000000000
C          C       0.07533   0.45987   0.51507   0.0000000000
C          C       0.57533   0.95987   0.01507   0.0000000000
C          C       0.92467   0.95987   0.98493   0.0000000000
C          C       0.42467   0.45987   0.48493   0.0000000000
C          C       0.57533   0.04013   0.48493   0.0000000000
C          C       0.07533   0.54013   0.98493   0.0000000000
C          C       0.42467   0.54013   0.01507   0.0000000000
C          C       0.92467   0.04013   0.51507   0.0000000000
C          C       0.32533   0.76507   0.70987   0.0000000000
C          C       0.82533   0.26507   0.20987   0.0000000000
C          C       0.17467   0.23493   0.20987   0.0000000000
C          C       0.67467   0.73493   0.70987   0.0000000000
C          C       0.82533   0.73493   0.29013   0.0000000000
C          C       0.32533   0.23493   0.79013   0.0000000000
C          C       0.67467   0.26507   0.79013   0.0000000000
C          C       0.17467   0.76507   0.29013   0.0000000000
C          C       0.76507   0.70987   0.32533   0.0000000000
C          C       0.26507   0.20987   0.82533   0.0000000000
C          C       0.23493   0.20987   0.17467   0.0000000000
C          C       0.73493   0.70987   0.67467   0.0000000000
C          C       0.73493   0.29013   0.82533   0.0000000000
C          C       0.23493   0.79013   0.32533   0.0000000000
C          C       0.26507   0.79013   0.67467   0.0000000000
C          C       0.76507   0.29013   0.17467   0.0000000000
C          C       0.70987   0.32533   0.76507   0.0000000000
C          C       0.20987   0.82533   0.26507   0.0000000000
C          C       0.20987   0.17467   0.23493   0.0000000000
C          C       0.70987   0.67467   0.73493   0.0000000000
C          C       0.29013   0.82533   0.73493   0.0000000000
C          C       0.79013   0.32533   0.23493   0.0000000000
C          C       0.79013   0.67467   0.26507   0.0000000000
C          C       0.29013   0.17467   0.76507   0.0000000000
C          C       0.52286   0.08915   0.48189   0.0000000000
C          C       0.02286   0.58915   0.98189   0.0000000000
C          C       0.97714   0.91085   0.98189   0.0000000000
C          C       0.47714   0.41085   0.48189   0.0000000000
C          C       0.47714   0.58915   0.01811   0.0000000000
C          C       0.97714   0.08915   0.51811   0.0000000000
C          C       0.02286   0.41085   0.51811   0.0000000000
C          C       0.52286   0.91085   0.01811   0.0000000000
C          C       0.48189   0.52286   0.08915   0.0000000000
C          C       0.98189   0.02286   0.58915   0.0000000000
C          C       0.98189   0.97714   0.91085   0.0000000000
C          C       0.48189   0.47714   0.41085   0.0000000000
C          C       0.01811   0.47714   0.58915   0.0000000000
C          C       0.51811   0.97714   0.08915   0.0000000000
C          C       0.51811   0.02286   0.41085   0.0000000000
C          C       0.01811   0.52286   0.91085   0.0000000000
C          C       0.08915   0.48189   0.52286   0.0000000000
C          C       0.58915   0.98189   0.02286   0.0000000000
C          C       0.91085   0.98189   0.97714   0.0000000000
C          C       0.41085   0.48189   0.47714   0.0000000000
C          C       0.58915   0.01811   0.47714   0.0000000000
C          C       0.08915   0.51811   0.97714   0.0000000000
C          C       0.41085   0.51811   0.02286   0.0000000000
C          C       0.91085   0.01811   0.52286   0.0000000000
C          C       0.33915   0.77286   0.73189   0.0000000000
C          C       0.83915   0.27286   0.23189   0.0000000000
C          C       0.16085   0.22714   0.23189   0.0000000000
C          C       0.66085   0.72714   0.73189   0.0000000000
C          C       0.83915   0.72714   0.26811   0.0000000000
C          C       0.33915   0.22714   0.76811   0.0000000000
C          C       0.66085   0.27286   0.76811   0.0000000000
C          C       0.16085   0.77286   0.26811   0.0000000000
C          C       0.77286   0.73189   0.33915   0.0000000000
C          C       0.27286   0.23189   0.83915   0.0000000000
C          C       0.22714   0.23189   0.16085   0.0000000000
C          C       0.72714   0.73189   0.66085   0.0000000000
C          C       0.72714   0.26811   0.83915   0.0000000000
C          C       0.22714   0.76811   0.33915   0.0000000000
C          C       0.27286   0.76811   0.66085   0.0000000000
C          C       0.77286   0.26811   0.16085   0.0000000000
C          C       0.73189   0.33915   0.77286   0.0000000000
C          C       0.23189   0.83915   0.27286   0.0000000000
C          C       0.23189   0.16085   0.22714   0.0000000000
C          C       0.73189   0.66085   0.72714   0.0000000000
C          C       0.26811   0.83915   0.72714   0.0000000000
C          C       0.76811   0.33915   0.22714   0.0000000000
C          C       0.76811   0.66085   0.27286   0.0000000000
C          C       0.26811   0.16085   0.77286   0.0000000000
O          O       0.50228   0.14986   0.52451   0.0000000000
O          O       0.00228   0.64986   0.02451   0.0000000000
O          O       0.99772   0.85014   0.02451   0.0000000000
O          O       0.49772   0.35014   0.52451   0.0000000000
O          O       0.49772   0.64986   0.97549   0.0000000000
O          O       0.99772   0.14986   0.47549   0.0000000000
O          O       0.00228   0.35014   0.47549   0.0000000000
O          O       0.50228   0.85014   0.97549   0.0000000000
O          O       0.52451   0.50228   0.14986   0.0000000000
O          O       0.02451   0.00228   0.64986   0.0000000000
O          O       0.02451   0.99772   0.85014   0.0000000000
O          O       0.52451   0.49772   0.35014   0.0000000000
O          O       0.97549   0.49772   0.64986   0.0000000000
O          O       0.47549   0.99772   0.14986   0.0000000000
O          O       0.47549   0.00228   0.35014   0.0000000000
O          O       0.97549   0.50228   0.85014   0.0000000000
O          O       0.14986   0.52451   0.50228   0.0000000000
O          O       0.64986   0.02451   0.00228   0.0000000000
O          O       0.85014   0.02451   0.99772   0.0000000000
O          O       0.35014   0.52451   0.49772   0.0000000000
O          O       0.64986   0.97549   0.49772   0.0000000000
O          O       0.14986   0.47549   0.99772   0.0000000000
O          O       0.35014   0.47549   0.00228   0.0000000000
O          O       0.85014   0.97549   0.50228   0.0000000000
O          O       0.39986   0.75228   0.77451   0.0000000000
O          O       0.89986   0.25228   0.27451   0.0000000000
O          O       0.10014   0.24772   0.27451   0.0000000000
O          O       0.60014   0.74772   0.77451   0.0000000000
O          O       0.89986   0.74772   0.22549   0.0000000000
O          O       0.39986   0.24772   0.72549   0.0000000000
O          O       0.60014   0.25228   0.72549   0.0000000000
O          O       0.10014   0.75228   0.22549   0.0000000000
O          O       0.75228   0.77451   0.39986   0.0000000000
O          O       0.25228   0.27451   0.89986   0.0000000000
O          O       0.24772   0.27451   0.10014   0.0000000000
O          O       0.74772   0.77451   0.60014   0.0000000000
O          O       0.74772   0.22549   0.89986   0.0000000000
O          O       0.24772   0.72549   0.39986   0.0000000000
O          O       0.25228   0.72549   0.60014   0.0000000000
O          O       0.75228   0.22549   0.10014   0.0000000000
O          O       0.77451   0.39986   0.75228   0.0000000000
O          O       0.27451   0.89986   0.25228   0.0000000000
O          O       0.27451   0.10014   0.24772   0.0000000000
O          O       0.77451   0.60014   0.74772   0.0000000000
O          O       0.22549   0.89986   0.74772   0.0000000000
O          O       0.72549   0.39986   0.24772   0.0000000000
O          O       0.72549   0.60014   0.25228   0.0000000000
O          O       0.22549   0.10014   0.75228   0.0000000000
B          B       0.45267   0.01998   0.34246   0.0000000000
B          B       0.95267   0.51998   0.84246   0.0000000000
B          B       0.04733   0.98002   0.84246   0.0000000000
B          B       0.54733   0.48002   0.34246   0.0000000000
B          B       0.54733   0.51998   0.15754   0.0000000000
B          B       0.04733   0.01998   0.65754   0.0000000000
B          B       0.95267   0.48002   0.65754   0.0000000000
B          B       0.45267   0.98002   0.15754   0.0000000000
B          B       0.34246   0.45267   0.01998   0.0000000000
B          B       0.84246   0.95267   0.51998   0.0000000000
B          B       0.84246   0.04733   0.98002   0.0000000000
B          B       0.34246   0.54733   0.48002   0.0000000000
B          B       0.15754   0.54733   0.51998   0.0000000000
B          B       0.65754   0.04733   0.01998   0.0000000000
B          B       0.65754   0.95267   0.48002   0.0000000000
B          B       0.15754   0.45267   0.98002   0.0000000000
B          B       0.01998   0.34246   0.45267   0.0000000000
B          B       0.51998   0.84246   0.95267   0.0000000000
B          B       0.98002   0.84246   0.04733   0.0000000000
B          B       0.48002   0.34246   0.54733   0.0000000000
B          B       0.51998   0.15754   0.54733   0.0000000000
B          B       0.01998   0.65754   0.04733   0.0000000000
B          B       0.48002   0.65754   0.95267   0.0000000000
B          B       0.98002   0.15754   0.45267   0.0000000000
B          B       0.26998   0.70267   0.59246   0.0000000000
B          B       0.76998   0.20267   0.09246   0.0000000000
B          B       0.23002   0.29733   0.09246   0.0000000000
B          B       0.73002   0.79733   0.59246   0.0000000000
B          B       0.76998   0.79733   0.40754   0.0000000000
B          B       0.26998   0.29733   0.90754   0.0000000000
B          B       0.73002   0.20267   0.90754   0.0000000000
B          B       0.23002   0.70267   0.40754   0.0000000000
B          B       0.70267   0.59246   0.26998   0.0000000000
B          B       0.20267   0.09246   0.76998   0.0000000000
B          B       0.29733   0.09246   0.23002   0.0000000000
B          B       0.79733   0.59246   0.73002   0.0000000000
B          B       0.79733   0.40754   0.76998   0.0000000000
B          B       0.29733   0.90754   0.26998   0.0000000000
B          B       0.20267   0.90754   0.73002   0.0000000000
B          B       0.70267   0.40754   0.23002   0.0000000000
B          B       0.59246   0.26998   0.70267   0.0000000000
B          B       0.09246   0.76998   0.20267   0.0000000000
B          B       0.09246   0.23002   0.29733   0.0000000000
B          B       0.59246   0.73002   0.79733   0.0000000000
B          B       0.40754   0.76998   0.79733   0.0000000000
B          B       0.90754   0.26998   0.29733   0.0000000000
B          B       0.90754   0.73002   0.20267   0.0000000000
B          B       0.40754   0.23002   0.70267   0.0000000000
H          H       0.46814   0.07243   0.40622   0.0000000000
H          H       0.96814   0.57243   0.90622   0.0000000000
H          H       0.03186   0.92757   0.90622   0.0000000000
H          H       0.53186   0.42757   0.40622   0.0000000000
H          H       0.53186   0.57243   0.09378   0.0000000000
H          H       0.03186   0.07243   0.59378   0.0000000000
H          H       0.96814   0.42757   0.59378   0.0000000000
H          H       0.46814   0.92757   0.09378   0.0000000000
H          H       0.40622   0.46814   0.07243   0.0000000000
H          H       0.90622   0.96814   0.57243   0.0000000000
H          H       0.90622   0.03186   0.92757   0.0000000000
H          H       0.40622   0.53186   0.42757   0.0000000000
H          H       0.09378   0.53186   0.57243   0.0000000000
H          H       0.59378   0.03186   0.07243   0.0000000000
H          H       0.59378   0.96814   0.42757   0.0000000000
H          H       0.09378   0.46814   0.92757   0.0000000000
H          H       0.07243   0.40622   0.46814   0.0000000000
H          H       0.57243   0.90622   0.96814   0.0000000000
H          H       0.92757   0.90622   0.03186   0.0000000000
H          H       0.42757   0.40622   0.53186   0.0000000000
H          H       0.57243   0.09378   0.53186   0.0000000000
H          H       0.07243   0.59378   0.03186   0.0000000000
H          H       0.42757   0.59378   0.96814   0.0000000000
H          H       0.92757   0.09378   0.46814   0.0000000000
H          H       0.32243   0.71814   0.65622   0.0000000000
H          H       0.82243   0.21814   0.15622   0.0000000000
H          H       0.17757   0.28186   0.15622   0.0000000000
H          H       0.67757   0.78186   0.65622   0.0000000000
H          H       0.82243   0.78186   0.34378   0.0000000000
H          H       0.32243   0.28186   0.84378   0.0000000000
H          H       0.67757   0.21814   0.84378   0.0000000000
H          H       0.17757   0.71814   0.34378   0.0000000000
H          H       0.71814   0.65622   0.32243   0.0000000000
H          H       0.21814   0.15622   0.82243   0.0000000000
H          H       0.28186   0.15622   0.17757   0.0000000000
H          H       0.78186   0.65622   0.67757   0.0000000000
H          H       0.78186   0.34378   0.82243   0.0000000000
H          H       0.28186   0.84378   0.32243   0.0000000000
H          H       0.21814   0.84378   0.67757   0.0000000000
H          H       0.71814   0.34378   0.17757   0.0000000000
H          H       0.65622   0.32243   0.71814   0.0000000000
H          H       0.15622   0.82243   0.21814   0.0000000000
H          H       0.15622   0.17757   0.28186   0.0000000000
H          H       0.65622   0.67757   0.78186   0.0000000000
H          H       0.34378   0.82243   0.78186   0.0000000000
H          H       0.84378   0.32243   0.28186   0.0000000000
H          H       0.84378   0.67757   0.21814   0.0000000000
H          H       0.34378   0.17757   0.71814   0.0000000000
H          H       0.48901   0.11793   0.47993   0.0000000000
H          H       0.98901   0.61793   0.97993   0.0000000000
H          H       0.01099   0.88207   0.97993   0.0000000000
H          H       0.51099   0.38207   0.47993   0.0000000000
H          H       0.51099   0.61793   0.02007   0.0000000000
H          H       0.01099   0.11793   0.52007   0.0000000000
H          H       0.98901   0.38207   0.52007   0.0000000000
H          H       0.48901   0.88207   0.02007   0.0000000000
H          H       0.47993   0.48901   0.11793   0.0000000000
H          H       0.97993   0.98901   0.61793   0.0000000000
H          H       0.97993   0.01099   0.88207   0.0000000000
H          H       0.47993   0.51099   0.38207   0.0000000000
H          H       0.02007   0.51099   0.61793   0.0000000000
H          H       0.52007   0.01099   0.11793   0.0000000000
H          H       0.52007   0.98901   0.38207   0.0000000000
H          H       0.02007   0.48901   0.88207   0.0000000000
H          H       0.11793   0.47993   0.48901   0.0000000000
H          H       0.61793   0.97993   0.98901   0.0000000000
H          H       0.88207   0.97993   0.01099   0.0000000000
H          H       0.38207   0.47993   0.51099   0.0000000000
H          H       0.61793   0.02007   0.51099   0.0000000000
H          H       0.11793   0.52007   0.01099   0.0000000000
H          H       0.38207   0.52007   0.98901   0.0000000000
H          H       0.88207   0.02007   0.48901   0.0000000000
H          H       0.36793   0.73901   0.72993   0.0000000000
H          H       0.86793   0.23901   0.22993   0.0000000000
H          H       0.13207   0.26099   0.22993   0.0000000000
H          H       0.63207   0.76099   0.72993   0.0000000000
H          H       0.86793   0.76099   0.27007   0.0000000000
H          H       0.36793   0.26099   0.77007   0.0000000000
H          H       0.63207   0.23901   0.77007   0.0000000000
H          H       0.13207   0.73901   0.27007   0.0000000000
H          H       0.73901   0.72993   0.36793   0.0000000000
H          H       0.23901   0.22993   0.86793   0.0000000000
H          H       0.26099   0.22993   0.13207   0.0000000000
H          H       0.76099   0.72993   0.63207   0.0000000000
H          H       0.76099   0.27007   0.86793   0.0000000000
H          H       0.26099   0.77007   0.36793   0.0000000000
H          H       0.23901   0.77007   0.63207   0.0000000000
H          H       0.73901   0.27007   0.13207   0.0000000000
H          H       0.72993   0.36793   0.73901   0.0000000000
H          H       0.22993   0.86793   0.23901   0.0000000000
H          H       0.22993   0.13207   0.26099   0.0000000000
H          H       0.72993   0.63207   0.76099   0.0000000000
H          H       0.27007   0.86793   0.76099   0.0000000000
H          H       0.77007   0.36793   0.26099   0.0000000000
H          H       0.77007   0.63207   0.23901   0.0000000000
H          H       0.27007   0.13207   0.73901   0.0000000000
Ni         Ni      0.45640   0.45640   0.45640   0.0000000000
Ni         Ni      0.95640   0.95640   0.95640   0.0000000000
Ni         Ni      0.04360   0.54360   0.95640   0.0000000000
Ni         Ni      0.54360   0.04360   0.45640   0.0000000000
Ni         Ni      0.54360   0.95640   0.04360   0.0000000000
Ni         Ni      0.04360   0.45640   0.54360   0.0000000000
Ni         Ni      0.95640   0.04360   0.54360   0.0000000000
Ni         Ni      0.45640   0.54360   0.04360   0.0000000000
Ni         Ni      0.70640   0.70640   0.70640   0.0000000000
Ni         Ni      0.20640   0.20640   0.20640   0.0000000000
Ni         Ni      0.79360   0.29360   0.20640   0.0000000000
Ni         Ni      0.29360   0.79360   0.70640   0.0000000000
Ni         Ni      0.20640   0.79360   0.29360   0.0000000000
Ni         Ni      0.70640   0.29360   0.79360   0.0000000000
Ni         Ni      0.29360   0.20640   0.79360   0.0000000000
Ni         Ni      0.79360   0.70640   0.29360   0.0000000000
