data_crystal

_cell_length_a    42.26010
_cell_length_b    45.01260
_cell_length_c    7.81520
_cell_angle_alpha 90.00000
_cell_angle_beta  90.00000
_cell_angle_gamma 90.00000

_space_group_name_Hall 'P 1'
_space_group_name_H-M_alt  'P 1'

loop_
_symmetry_equiv_pos_as_xyz
'x,y,z' 

loop_
_atom_site_label
_atom_site_type_symbol
_atom_site_fract_x
_atom_site_fract_y
_atom_site_fract_z
C          C       0.53413   0.52735  -0.03871 
C          C       0.48348   0.55337  -0.07167 
C          C       0.43244   0.52771  -0.01140 
C          C       0.41302   0.55364  -0.00334 
C          C       0.38301   0.55439  -0.08517 
C          C       0.36323   0.57947  -0.07580 
C          C       0.37304   0.60522   0.01158 
C          C       0.40286   0.60498   0.09315 
C          C       0.42201   0.57944   0.08836 
H          H       0.47274   0.57319  -0.09530 
H          H       0.37514   0.53658  -0.15452 
H          H       0.34166   0.57887  -0.13543 
H          H       0.41082   0.62310   0.15890 
H          H       0.44276   0.57997   0.15459 
C          C       0.03413   0.02735   0.07058 
C          C       0.98348   0.05337   0.10354 
C          C       0.93244   0.02771   0.04327 
C          C       0.91302   0.05364   0.03522 
C          C       0.92201   0.07944  -0.05648 
C          C       0.90286   0.10498  -0.06128 
C          C       0.87304   0.10522   0.02029 
C          C       0.86323   0.07947   0.10768 
C          C       0.88301   0.05439   0.11705 
H          H       0.97274   0.07319   0.12717 
H          H       0.94276   0.07997  -0.12271 
H          H       0.91082   0.12310  -0.12702 
H          H       0.84166   0.07887   0.16731 
H          H       0.87514   0.03658   0.18639 
C          C       0.16897   0.82262  -0.02884 
C          C       0.16398   0.79315  -0.08625 
C          C       0.18795   0.77158  -0.07323 
C          C       0.21761   0.77908  -0.00255 
C          C       0.22297   0.80837   0.05466 
C          C       0.19890   0.82984   0.04160 
C          C       0.23982   0.75915   0.01006 
C          C       0.26018   0.74085   0.02180 
C          C       0.28239   0.72092   0.03442 
C          C       0.31205   0.72842   0.10511 
C          C       0.33602   0.70685   0.11812 
C          C       0.33103   0.67738   0.06072 
C          C       0.30110   0.67016  -0.00972 
C          C       0.27703   0.69163  -0.02278 
H          H       0.14273   0.78702  -0.13834 
H          H       0.18346   0.75047  -0.11601 
H          H       0.24430   0.81440   0.10653 
H          H       0.20358   0.85086   0.08451 
H          H       0.31654   0.74953   0.14788 
H          H       0.35727   0.71298   0.17022 
H          H       0.29641   0.64914  -0.05264 
H          H       0.25570   0.68560  -0.07466 
C          C       0.14443   0.84368  -0.04302 
N          N       0.14727   0.87149   0.02074 
N          N       0.35273   0.62851   0.01113 
C          C       0.35557   0.65632   0.07490 
H          H       0.87614   0.16237  -0.10239 
H          H       0.62386   0.33763   0.13426 
C          C       0.46587   0.47265  -0.03871 
C          C       0.51651   0.44663  -0.07167 
C          C       0.56756   0.47229  -0.01140 
C          C       0.58697   0.44636  -0.00334 
C          C       0.61699   0.44561  -0.08517 
C          C       0.63677   0.42053  -0.07580 
C          C       0.62696   0.39478   0.01158 
C          C       0.59714   0.39502   0.09315 
C          C       0.57799   0.42056   0.08836 
H          H       0.52726   0.42681  -0.09530 
H          H       0.62486   0.46342  -0.15452 
H          H       0.65834   0.42113  -0.13543 
H          H       0.58918   0.37690   0.15890 
H          H       0.55724   0.42003   0.15459 
C          C       0.96587   0.97265   0.07058 
C          C       0.01652   0.94663   0.10354 
C          C       0.06756   0.97229   0.04327 
C          C       0.08697   0.94636   0.03522 
C          C       0.07799   0.92056  -0.05648 
C          C       0.09714   0.89502  -0.06128 
C          C       0.12696   0.89478   0.02029 
C          C       0.13677   0.92053   0.10768 
C          C       0.11699   0.94561   0.11705 
H          H       0.02726   0.92681   0.12717 
H          H       0.05724   0.92003  -0.12271 
H          H       0.08918   0.87690  -0.12702 
H          H       0.15834   0.92113   0.16731 
H          H       0.12486   0.96342   0.18639 
C          C       0.83103   0.17738  -0.02884 
C          C       0.83602   0.20685  -0.08625 
C          C       0.81205   0.22842  -0.07323 
C          C       0.78239   0.22092  -0.00255 
C          C       0.77703   0.19163   0.05466 
C          C       0.80110   0.17016   0.04160 
C          C       0.76018   0.24086   0.01006 
C          C       0.73982   0.25915   0.02180 
C          C       0.71761   0.27908   0.03442 
C          C       0.68795   0.27158   0.10511 
C          C       0.66398   0.29315   0.11812 
C          C       0.66897   0.32262   0.06072 
C          C       0.69890   0.32984  -0.00972 
C          C       0.72297   0.30837  -0.02278 
H          H       0.85727   0.21298  -0.13834 
H          H       0.81654   0.24953  -0.11601 
H          H       0.75570   0.18560   0.10653 
H          H       0.79641   0.14914   0.08451 
H          H       0.68346   0.25047   0.14788 
H          H       0.64273   0.28702   0.17022 
H          H       0.70358   0.35086  -0.05264 
H          H       0.74430   0.31440  -0.07466 
C          C       0.85557   0.15632  -0.04302 
N          N       0.85273   0.12851   0.02074 
N          N       0.64727   0.37149   0.01113 
C          C       0.64443   0.34368   0.07490 
H          H       0.12386   0.83763  -0.10239 
H          H       0.37614   0.66237   0.13426 
C          C       0.53413   0.47265  -0.03871 
C          C       0.48348   0.44663  -0.07167 
C          C       0.43244   0.47229  -0.01140 
C          C       0.41302   0.44636  -0.00334 
C          C       0.38301   0.44561  -0.08517 
C          C       0.36323   0.42053  -0.07580 
C          C       0.37304   0.39478   0.01158 
C          C       0.40286   0.39502   0.09315 
C          C       0.42201   0.42056   0.08836 
H          H       0.47274   0.42681  -0.09530 
H          H       0.37514   0.46342  -0.15452 
H          H       0.34166   0.42113  -0.13543 
H          H       0.41082   0.37690   0.15890 
H          H       0.44276   0.42003   0.15459 
C          C       0.03413   0.97265   0.07058 
C          C       0.98348   0.94663   0.10354 
C          C       0.93244   0.97229   0.04327 
C          C       0.91302   0.94636   0.03522 
C          C       0.92201   0.92056  -0.05648 
C          C       0.90286   0.89502  -0.06128 
C          C       0.87304   0.89478   0.02029 
C          C       0.86323   0.92053   0.10768 
C          C       0.88301   0.94561   0.11705 
H          H       0.97274   0.92681   0.12717 
H          H       0.94276   0.92003  -0.12271 
H          H       0.91082   0.87690  -0.12702 
H          H       0.84166   0.92113   0.16731 
H          H       0.87514   0.96342   0.18639 
C          C       0.16897   0.17738  -0.02884 
C          C       0.16398   0.20685  -0.08625 
C          C       0.18795   0.22842  -0.07323 
C          C       0.21761   0.22092  -0.00255 
C          C       0.22297   0.19163   0.05466 
C          C       0.19890   0.17016   0.04160 
C          C       0.23982   0.24086   0.01006 
C          C       0.26018   0.25915   0.02180 
C          C       0.28239   0.27908   0.03442 
C          C       0.31205   0.27158   0.10511 
C          C       0.33602   0.29315   0.11812 
C          C       0.33103   0.32262   0.06072 
C          C       0.30110   0.32984  -0.00972 
C          C       0.27703   0.30837  -0.02278 
H          H       0.14273   0.21298  -0.13834 
H          H       0.18346   0.24953  -0.11601 
H          H       0.24430   0.18560   0.10653 
H          H       0.20358   0.14914   0.08451 
H          H       0.31654   0.25047   0.14788 
H          H       0.35727   0.28702   0.17022 
H          H       0.29641   0.35086  -0.05264 
H          H       0.25570   0.31440  -0.07466 
C          C       0.14443   0.15632  -0.04302 
N          N       0.14727   0.12851   0.02074 
N          N       0.35273   0.37149   0.01113 
C          C       0.35557   0.34368   0.07490 
H          H       0.87614   0.83763  -0.10239 
H          H       0.62386   0.66237   0.13426 
C          C       0.46587   0.52735  -0.03871 
C          C       0.51651   0.55337  -0.07167 
C          C       0.56756   0.52771  -0.01140 
C          C       0.58697   0.55364  -0.00334 
C          C       0.61699   0.55439  -0.08517 
C          C       0.63677   0.57947  -0.07580 
C          C       0.62696   0.60522   0.01158 
C          C       0.59714   0.60498   0.09315 
C          C       0.57799   0.57944   0.08836 
H          H       0.52726   0.57319  -0.09530 
H          H       0.62486   0.53658  -0.15452 
H          H       0.65834   0.57887  -0.13543 
H          H       0.58918   0.62310   0.15890 
H          H       0.55724   0.57997   0.15459 
C          C       0.96587   0.02735   0.07058 
C          C       0.01652   0.05337   0.10354 
C          C       0.06756   0.02771   0.04327 
C          C       0.08697   0.05364   0.03522 
C          C       0.07799   0.07944  -0.05648 
C          C       0.09714   0.10498  -0.06128 
C          C       0.12696   0.10522   0.02029 
C          C       0.13677   0.07947   0.10768 
C          C       0.11699   0.05439   0.11705 
H          H       0.02726   0.07319   0.12717 
H          H       0.05724   0.07997  -0.12271 
H          H       0.08918   0.12310  -0.12702 
H          H       0.15834   0.07887   0.16731 
H          H       0.12486   0.03658   0.18639 
C          C       0.83103   0.82262  -0.02884 
C          C       0.83602   0.79315  -0.08625 
C          C       0.81205   0.77158  -0.07323 
C          C       0.78239   0.77908  -0.00255 
C          C       0.77703   0.80837   0.05466 
C          C       0.80110   0.82984   0.04160 
C          C       0.76018   0.75915   0.01006 
C          C       0.73982   0.74085   0.02180 
C          C       0.71761   0.72092   0.03442 
C          C       0.68795   0.72842   0.10511 
C          C       0.66398   0.70685   0.11812 
C          C       0.66897   0.67738   0.06072 
C          C       0.69890   0.67016  -0.00972 
C          C       0.72297   0.69163  -0.02278 
H          H       0.85727   0.78702  -0.13834 
H          H       0.81654   0.75047  -0.11601 
H          H       0.75570   0.81440   0.10653 
H          H       0.79641   0.85086   0.08451 
H          H       0.68346   0.74953   0.14788 
H          H       0.64273   0.71298   0.17022 
H          H       0.70358   0.64914  -0.05264 
H          H       0.74430   0.68560  -0.07466 
C          C       0.85557   0.84368  -0.04302 
N          N       0.85273   0.87149   0.02074 
N          N       0.64727   0.62851   0.01113 
C          C       0.64443   0.65632   0.07490 
H          H       0.12386   0.16237  -0.10239 
H          H       0.37614   0.33763   0.13426 
C          C       0.41730   0.50000   0.01198 
C          C       0.51701   0.50000  -0.03744 
H          H       0.39391   0.50000   0.04684 
C          C       0.58270   0.50000   0.01198 
C          C       0.48299   0.50000  -0.03744 
H          H       0.60609   0.50000   0.04684 
C          C       0.91730   0.00000   0.01989 
C          C       0.01701   0.00000   0.06932 
H          H       0.89391  -0.00000  -0.01496 
C          C       0.08270   0.00000   0.01989 
C          C       0.98299   0.00000   0.06932 
H          H       0.10609  -0.00000  -0.01496 
C          C       0.53413   0.52735   0.46129 
C          C       0.48348   0.55337   0.42833 
C          C       0.43244   0.52771   0.48860 
C          C       0.41302   0.55364   0.49665 
C          C       0.38301   0.55439   0.41483 
C          C       0.36323   0.57947   0.42419 
C          C       0.37304   0.60522   0.51158 
C          C       0.40286   0.60498   0.59315 
C          C       0.42201   0.57944   0.58836 
H          H       0.47274   0.57319   0.40470 
H          H       0.37514   0.53658   0.34548 
H          H       0.34166   0.57887   0.36457 
H          H       0.41082   0.62310   0.65890 
H          H       0.44276   0.57997   0.65458 
C          C       0.03413   0.02735   0.57058 
C          C       0.98348   0.05337   0.60354 
C          C       0.93244   0.02771   0.54327 
C          C       0.91302   0.05364   0.53522 
C          C       0.92201   0.07944   0.44351 
C          C       0.90286   0.10498   0.43872 
C          C       0.87304   0.10522   0.52029 
C          C       0.86323   0.07947   0.60768 
C          C       0.88301   0.05439   0.61705 
H          H       0.97274   0.07319   0.62717 
H          H       0.94276   0.07997   0.37729 
H          H       0.91082   0.12310   0.37297 
H          H       0.84166   0.07887   0.66731 
H          H       0.87514   0.03658   0.68639 
C          C       0.16897   0.82262   0.47115 
C          C       0.16398   0.79315   0.41375 
C          C       0.18795   0.77158   0.42677 
C          C       0.21761   0.77908   0.49745 
C          C       0.22297   0.80837   0.55466 
C          C       0.19890   0.82984   0.54160 
C          C       0.23982   0.75915   0.51006 
C          C       0.26018   0.74085   0.52180 
C          C       0.28239   0.72092   0.53442 
C          C       0.31205   0.72842   0.60511 
C          C       0.33602   0.70685   0.61812 
C          C       0.33103   0.67738   0.56072 
C          C       0.30110   0.67016   0.49027 
C          C       0.27703   0.69163   0.47721 
H          H       0.14273   0.78702   0.36165 
H          H       0.18346   0.75047   0.38399 
H          H       0.24430   0.81440   0.60653 
H          H       0.20358   0.85086   0.58451 
H          H       0.31654   0.74953   0.64788 
H          H       0.35727   0.71298   0.67022 
H          H       0.29641   0.64914   0.44736 
H          H       0.25570   0.68560   0.42533 
C          C       0.14443   0.84368   0.45698 
N          N       0.14727   0.87149   0.52075 
N          N       0.35273   0.62851   0.51113 
C          C       0.35557   0.65632   0.57489 
H          H       0.87614   0.16237   0.39761 
H          H       0.62386   0.33763   0.63426 
C          C       0.46587   0.47265   0.46129 
C          C       0.51651   0.44663   0.42833 
C          C       0.56756   0.47229   0.48860 
C          C       0.58697   0.44636   0.49665 
C          C       0.61699   0.44561   0.41483 
C          C       0.63677   0.42053   0.42419 
C          C       0.62696   0.39478   0.51158 
C          C       0.59714   0.39502   0.59315 
C          C       0.57799   0.42056   0.58836 
H          H       0.52726   0.42681   0.40470 
H          H       0.62486   0.46342   0.34548 
H          H       0.65834   0.42113   0.36457 
H          H       0.58918   0.37690   0.65890 
H          H       0.55724   0.42003   0.65458 
C          C       0.96587   0.97265   0.57058 
C          C       0.01652   0.94663   0.60354 
C          C       0.06756   0.97229   0.54327 
C          C       0.08697   0.94636   0.53522 
C          C       0.07799   0.92056   0.44351 
C          C       0.09714   0.89502   0.43872 
C          C       0.12696   0.89478   0.52029 
C          C       0.13677   0.92053   0.60768 
C          C       0.11699   0.94561   0.61705 
H          H       0.02726   0.92681   0.62717 
H          H       0.05724   0.92003   0.37729 
H          H       0.08918   0.87690   0.37297 
H          H       0.15834   0.92113   0.66731 
H          H       0.12486   0.96342   0.68639 
C          C       0.83103   0.17738   0.47115 
C          C       0.83602   0.20685   0.41375 
C          C       0.81205   0.22842   0.42677 
C          C       0.78239   0.22092   0.49745 
C          C       0.77703   0.19163   0.55466 
C          C       0.80110   0.17016   0.54160 
C          C       0.76018   0.24086   0.51006 
C          C       0.73982   0.25915   0.52180 
C          C       0.71761   0.27908   0.53442 
C          C       0.68795   0.27158   0.60511 
C          C       0.66398   0.29315   0.61812 
C          C       0.66897   0.32262   0.56072 
C          C       0.69890   0.32984   0.49027 
C          C       0.72297   0.30837   0.47721 
H          H       0.85727   0.21298   0.36165 
H          H       0.81654   0.24953   0.38399 
H          H       0.75570   0.18560   0.60653 
H          H       0.79641   0.14914   0.58451 
H          H       0.68346   0.25047   0.64788 
H          H       0.64273   0.28702   0.67022 
H          H       0.70358   0.35086   0.44736 
H          H       0.74430   0.31440   0.42533 
C          C       0.85557   0.15632   0.45698 
N          N       0.85273   0.12851   0.52075 
N          N       0.64727   0.37149   0.51113 
C          C       0.64443   0.34368   0.57489 
H          H       0.12386   0.83763   0.39761 
H          H       0.37614   0.66237   0.63426 
C          C       0.53413   0.47265   0.46129 
C          C       0.48348   0.44663   0.42833 
C          C       0.43244   0.47229   0.48860 
C          C       0.41302   0.44636   0.49665 
C          C       0.38301   0.44561   0.41483 
C          C       0.36323   0.42053   0.42419 
C          C       0.37304   0.39478   0.51158 
C          C       0.40286   0.39502   0.59315 
C          C       0.42201   0.42056   0.58836 
H          H       0.47274   0.42681   0.40470 
H          H       0.37514   0.46342   0.34548 
H          H       0.34166   0.42113   0.36457 
H          H       0.41082   0.37690   0.65890 
H          H       0.44276   0.42003   0.65458 
C          C       0.03413   0.97265   0.57058 
C          C       0.98348   0.94663   0.60354 
C          C       0.93244   0.97229   0.54327 
C          C       0.91302   0.94636   0.53522 
C          C       0.92201   0.92056   0.44351 
C          C       0.90286   0.89502   0.43872 
C          C       0.87304   0.89478   0.52029 
C          C       0.86323   0.92053   0.60768 
C          C       0.88301   0.94561   0.61705 
H          H       0.97274   0.92681   0.62717 
H          H       0.94276   0.92003   0.37729 
H          H       0.91082   0.87690   0.37297 
H          H       0.84166   0.92113   0.66731 
H          H       0.87514   0.96342   0.68639 
C          C       0.16897   0.17738   0.47115 
C          C       0.16398   0.20685   0.41375 
C          C       0.18795   0.22842   0.42677 
C          C       0.21761   0.22092   0.49745 
C          C       0.22297   0.19163   0.55466 
C          C       0.19890   0.17016   0.54160 
C          C       0.23982   0.24086   0.51006 
C          C       0.26018   0.25915   0.52180 
C          C       0.28239   0.27908   0.53442 
C          C       0.31205   0.27158   0.60511 
C          C       0.33602   0.29315   0.61812 
C          C       0.33103   0.32262   0.56072 
C          C       0.30110   0.32984   0.49027 
C          C       0.27703   0.30837   0.47721 
H          H       0.14273   0.21298   0.36165 
H          H       0.18346   0.24953   0.38399 
H          H       0.24430   0.18560   0.60653 
H          H       0.20358   0.14914   0.58451 
H          H       0.31654   0.25047   0.64788 
H          H       0.35727   0.28702   0.67022 
H          H       0.29641   0.35086   0.44736 
H          H       0.25570   0.31440   0.42533 
C          C       0.14443   0.15632   0.45698 
N          N       0.14727   0.12851   0.52075 
N          N       0.35273   0.37149   0.51113 
C          C       0.35557   0.34368   0.57489 
H          H       0.87614   0.83763   0.39761 
H          H       0.62386   0.66237   0.63426 
C          C       0.46587   0.52735   0.46129 
C          C       0.51651   0.55337   0.42833 
C          C       0.56756   0.52771   0.48860 
C          C       0.58697   0.55364   0.49665 
C          C       0.61699   0.55439   0.41483 
C          C       0.63677   0.57947   0.42419 
C          C       0.62696   0.60522   0.51158 
C          C       0.59714   0.60498   0.59315 
C          C       0.57799   0.57944   0.58836 
H          H       0.52726   0.57319   0.40470 
H          H       0.62486   0.53658   0.34548 
H          H       0.65834   0.57887   0.36457 
H          H       0.58918   0.62310   0.65890 
H          H       0.55724   0.57997   0.65458 
C          C       0.96587   0.02735   0.57058 
C          C       0.01652   0.05337   0.60354 
C          C       0.06756   0.02771   0.54327 
C          C       0.08697   0.05364   0.53522 
C          C       0.07799   0.07944   0.44351 
C          C       0.09714   0.10498   0.43872 
C          C       0.12696   0.10522   0.52029 
C          C       0.13677   0.07947   0.60768 
C          C       0.11699   0.05439   0.61705 
H          H       0.02726   0.07319   0.62717 
H          H       0.05724   0.07997   0.37729 
H          H       0.08918   0.12310   0.37297 
H          H       0.15834   0.07887   0.66731 
H          H       0.12486   0.03658   0.68639 
C          C       0.83103   0.82262   0.47115 
C          C       0.83602   0.79315   0.41375 
C          C       0.81205   0.77158   0.42677 
C          C       0.78239   0.77908   0.49745 
C          C       0.77703   0.80837   0.55466 
C          C       0.80110   0.82984   0.54160 
C          C       0.76018   0.75915   0.51006 
C          C       0.73982   0.74085   0.52180 
C          C       0.71761   0.72092   0.53442 
C          C       0.68795   0.72842   0.60511 
C          C       0.66398   0.70685   0.61812 
C          C       0.66897   0.67738   0.56072 
C          C       0.69890   0.67016   0.49027 
C          C       0.72297   0.69163   0.47721 
H          H       0.85727   0.78702   0.36165 
H          H       0.81654   0.75047   0.38399 
H          H       0.75570   0.81440   0.60653 
H          H       0.79641   0.85086   0.58451 
H          H       0.68346   0.74953   0.64788 
H          H       0.64273   0.71298   0.67022 
H          H       0.70358   0.64914   0.44736 
H          H       0.74430   0.68560   0.42533 
C          C       0.85557   0.84368   0.45698 
N          N       0.85273   0.87149   0.52075 
N          N       0.64727   0.62851   0.51113 
C          C       0.64443   0.65632   0.57489 
H          H       0.12386   0.16237   0.39761 
H          H       0.37614   0.33763   0.63426 
C          C       0.41730   0.50000   0.51198 
C          C       0.51701   0.50000   0.46256 
H          H       0.39391   0.50000   0.54684 
C          C       0.58270   0.50000   0.51198 
C          C       0.48299   0.50000   0.46256 
H          H       0.60609   0.50000   0.54684 
C          C       0.91730   0.00000   0.51989 
C          C       0.01701  -0.00000   0.56932 
H          H       0.89391   0.00000   0.48503 
C          C       0.08270   0.00000   0.51989 
C          C       0.98299  -0.00000   0.56932 
H          H       0.10609   0.00000   0.48503 
