data_crystal
 
_cell_length_a    48.87150
_cell_length_b    56.54200
_cell_length_c    7.83100
_cell_angle_alpha 90.16510
_cell_angle_beta  89.94330
_cell_angle_gamma 89.92030
 
_symmetry_space_group_name_Hall 'P 1'
_symmetry_space_group_name_H-M  'P 1'
 
loop_
_symmetry_equiv_pos_as_xyz
 'x,y,z' 
 
loop_
_atom_site_label
_atom_site_type_symbol
_atom_site_fract_x
_atom_site_fract_y
_atom_site_fract_z
_atom_site_charge
C          C       0.27916   0.27202   0.02834   0.0000000000
C          C       0.23537   0.29264  -0.00760   0.0000000000
C          C       0.19116   0.27226   0.05191   0.0000000000
C          C       0.17451   0.29299   0.06251   0.0000000000
C          C       0.14842   0.29410  -0.01700   0.0000000000
C          C       0.13185   0.31444  -0.00588   0.0000000000
C          C       0.14102   0.33478   0.08100   0.0000000000
C          C       0.16679   0.33389   0.16210   0.0000000000
C          C       0.18277   0.31325   0.15558   0.0000000000
H          H       0.22611   0.30840  -0.03186   0.0000000000
H          H       0.14118   0.28007  -0.08620   0.0000000000
H          H       0.11312   0.31440  -0.06431   0.0000000000
H          H       0.17417   0.34806   0.22846   0.0000000000
H          H       0.20072   0.31328   0.22119   0.0000000000
C          C       0.77978   0.77156  -0.02533   0.0000000000
C          C       0.73583   0.79225   0.00376   0.0000000000
C          C       0.69185   0.77172  -0.05932   0.0000000000
C          C       0.67504   0.79235  -0.06774   0.0000000000
C          C       0.68293   0.81288  -0.15837   0.0000000000
C          C       0.66679   0.83348  -0.15884   0.0000000000
C          C       0.64129   0.83399  -0.07385   0.0000000000
C          C       0.63237   0.81331   0.00890   0.0000000000
C          C       0.64907   0.79304   0.01388   0.0000000000
H          H       0.72647   0.80805   0.02588   0.0000000000
H          H       0.70073   0.81315  -0.22602   0.0000000000
H          H       0.67383   0.84792  -0.22325   0.0000000000
H          H       0.61378   0.81297   0.06921   0.0000000000
H          H       0.64203   0.77876   0.08074   0.0000000000
C          C       0.89129   0.60581  -0.12609   0.0000000000
C          C       0.88472   0.58255  -0.17910   0.0000000000
C          C       0.90370   0.56398  -0.16327   0.0000000000
C          C       0.92985   0.56830  -0.09406   0.0000000000
C          C       0.93685   0.59146  -0.04282   0.0000000000
C          C       0.91774   0.60998  -0.05868   0.0000000000
C          C       0.94723   0.55102  -0.07582   0.0000000000
C          C       0.96295   0.53504  -0.05648   0.0000000000
C          C       0.98021   0.51780  -0.03188   0.0000000000
C          C       0.00570   0.52350   0.04241   0.0000000000
C          C       0.02562   0.50606   0.07519   0.0000000000
H          H       0.86588   0.57879  -0.22930   0.0000000000
H          H       0.89806   0.54737  -0.20224   0.0000000000
H          H       0.95576   0.59509   0.00724   0.0000000000
H          H       0.92341   0.62653  -0.01961   0.0000000000
H          H       0.98991   0.45929  -0.07430   0.0000000000
C          C       0.87152   0.62385  -0.14089   0.0000000000
N          N       0.87563   0.64601  -0.08023   0.0000000000
H          H       0.64676   0.88026  -0.16989   0.0000000000
C          C       0.60844   0.89335  -0.09231   0.0000000000
C          C       0.61443   0.91695  -0.13903   0.0000000000
C          C       0.59499   0.93507  -0.11784   0.0000000000
C          C       0.56898   0.92996  -0.04931   0.0000000000
C          C       0.56270   0.90654  -0.00185   0.0000000000
C          C       0.58225   0.88846  -0.02326   0.0000000000
C          C       0.55104   0.94681  -0.03129   0.0000000000
C          C       0.53478   0.96251  -0.01759   0.0000000000
C          C       0.51755   0.98004  -0.00675   0.0000000000
C          C       0.49080   0.97765   0.06162   0.0000000000
C          C       0.47366   0.99771   0.06722   0.0000000000
H          H       0.63312   0.92123  -0.18922   0.0000000000
H          H       0.60009   0.95194  -0.15329   0.0000000000
H          H       0.54396   0.90238   0.04852   0.0000000000
H          H       0.57707   0.87166   0.01252   0.0000000000
H          H       0.54565   0.00417  -0.11706   0.0000000000
C          C       0.62852   0.87570  -0.11506   0.0000000000
N          N       0.62458   0.85311  -0.06459   0.0000000000
H          H       0.85327   0.61985  -0.19757   0.0000000000
C          C       0.27928   0.22850   0.03000   0.0000000000
C          C       0.23561   0.20774  -0.00679   0.0000000000
C          C       0.19127   0.22815   0.05128   0.0000000000
C          C       0.17467   0.20742   0.05928   0.0000000000
C          C       0.14879   0.20649  -0.02300   0.0000000000
C          C       0.13231   0.18612  -0.01731   0.0000000000
C          C       0.14140   0.16555   0.06649   0.0000000000
C          C       0.16684   0.16627   0.15157   0.0000000000
C          C       0.18271   0.18699   0.15085   0.0000000000
H          H       0.22644   0.19196  -0.03177   0.0000000000
H          H       0.14166   0.22066  -0.09076   0.0000000000
H          H       0.11376   0.18629  -0.07784   0.0000000000
H          H       0.17403   0.15192   0.21647   0.0000000000
H          H       0.20041   0.18688   0.21938   0.0000000000
C          C       0.77989   0.72803  -0.02522   0.0000000000
C          C       0.73607   0.70733   0.00635   0.0000000000
C          C       0.69198   0.72765  -0.05738   0.0000000000
C          C       0.67530   0.70696  -0.06423   0.0000000000
C          C       0.68330   0.68631  -0.15412   0.0000000000
C          C       0.66723   0.66571  -0.15424   0.0000000000
C          C       0.64176   0.66527  -0.06901   0.0000000000
C          C       0.63278   0.68602   0.01373   0.0000000000
C          C       0.64936   0.70634   0.01770   0.0000000000
H          H       0.72680   0.69157   0.03011   0.0000000000
H          H       0.70111   0.68597  -0.22162   0.0000000000
H          H       0.67431   0.65122  -0.21862   0.0000000000
H          H       0.61422   0.68640   0.07449   0.0000000000
H          H       0.64225   0.72072   0.08379   0.0000000000
C          C       0.89103   0.89389  -0.08892   0.0000000000
C          C       0.88488   0.91749  -0.13503   0.0000000000
C          C       0.90424   0.93565  -0.11419   0.0000000000
C          C       0.93033   0.93056  -0.04685   0.0000000000
C          C       0.93677   0.90713  -0.00011   0.0000000000
C          C       0.91731   0.88903  -0.02109   0.0000000000
C          C       0.94827   0.94739  -0.02932   0.0000000000
C          C       0.96465   0.96296  -0.01604   0.0000000000
C          C       0.98213   0.98028  -0.00579   0.0000000000
C          C       0.00889   0.97755   0.06158   0.0000000000
C          C       0.02635   0.99736   0.06611   0.0000000000
H          H       0.86613   0.92174  -0.18445   0.0000000000
H          H       0.89902   0.95253  -0.14907   0.0000000000
H          H       0.95556   0.90298   0.04935   0.0000000000
H          H       0.92262   0.87223   0.01403   0.0000000000
H          H       0.95433   0.00478  -0.11512   0.0000000000
C          C       0.87108   0.87617  -0.11080   0.0000000000
N          N       0.87513   0.85365  -0.05844   0.0000000000
H          H       0.64722   0.61896  -0.16706   0.0000000000
H          H       0.85286   0.88060  -0.16633   0.0000000000
C          C       0.60892   0.60598  -0.08933   0.0000000000
C          C       0.61484   0.58236  -0.13694   0.0000000000
C          C       0.59534   0.56433  -0.11643   0.0000000000
C          C       0.56934   0.56958  -0.04770   0.0000000000
C          C       0.56313   0.59304   0.00052   0.0000000000
C          C       0.58274   0.61101  -0.02016   0.0000000000
C          C       0.55132   0.55284  -0.03008   0.0000000000
C          C       0.53496   0.53727  -0.01657   0.0000000000
C          C       0.51764   0.51986  -0.00611   0.0000000000
C          C       0.49093   0.52239   0.06283   0.0000000000
C          C       0.47370   0.50244   0.06777   0.0000000000
H          H       0.63352   0.57798  -0.18727   0.0000000000
H          H       0.60038   0.54743  -0.15252   0.0000000000
H          H       0.54439   0.59730   0.05090   0.0000000000
H          H       0.57761   0.62783   0.01625   0.0000000000
H          H       0.54558   0.49557  -0.11802   0.0000000000
C          C       0.62902   0.62356  -0.11150   0.0000000000
N          N       0.62511   0.64617  -0.05987   0.0000000000
C          C       0.17804   0.25020   0.07352   0.0000000000
C          C       0.26440   0.25024   0.02942   0.0000000000
H          H       0.15775   0.25020   0.10691   0.0000000000
C          C       0.32116   0.25036   0.08275   0.0000000000
C          C       0.23497   0.25022   0.02738   0.0000000000
H          H       0.34134   0.25043   0.11853   0.0000000000
O          O       0.04900   0.51471   0.14780   0.0000000000
C          C       0.07401   0.50359   0.19790   0.0000000000
H          H       0.08725   0.51688   0.25544   0.0000000000
H          H       0.07011   0.48987   0.29196   0.0000000000
H          H       0.08446   0.49599   0.08780   0.0000000000
O          O       0.47926   0.54248   0.12789   0.0000000000
C          C       0.48886   0.56627   0.14206   0.0000000000
H          H       0.47302   0.57685   0.20386   0.0000000000
H          H       0.50736   0.56709   0.21923   0.0000000000
H          H       0.49286   0.57369   0.01647   0.0000000000
O          O       0.47902   0.95763   0.12565   0.0000000000
C          C       0.48854   0.93380   0.13939   0.0000000000
H          H       0.47266   0.92331   0.20077   0.0000000000
H          H       0.49257   0.92632   0.01368   0.0000000000
H          H       0.50701   0.93293   0.21678   0.0000000000
O          O       0.02039   0.95739   0.12570   0.0000000000
C          C       0.01046   0.93373   0.14135   0.0000000000
H          H       0.02621   0.92308   0.20275   0.0000000000
H          H       0.99204   0.93324   0.21957   0.0000000000
H          H       0.00621   0.92615   0.01632   0.0000000000
C          C       0.72084   0.72798  -0.02834   0.0000000000
C          C       0.76463   0.70736   0.00760   0.0000000000
C          C       0.80884   0.72774  -0.05191   0.0000000000
C          C       0.82549   0.70701  -0.06251   0.0000000000
C          C       0.85158   0.70590   0.01700   0.0000000000
C          C       0.86815   0.68556   0.00588   0.0000000000
C          C       0.85898   0.66522  -0.08100   0.0000000000
C          C       0.83321   0.66611  -0.16210   0.0000000000
C          C       0.81723   0.68675  -0.15558   0.0000000000
H          H       0.77389   0.69160   0.03186   0.0000000000
H          H       0.85882   0.71993   0.08620   0.0000000000
H          H       0.88688   0.68560   0.06431   0.0000000000
H          H       0.82583   0.65194  -0.22846   0.0000000000
H          H       0.79928   0.68672  -0.22119   0.0000000000
C          C       0.22022   0.22844   0.02533   0.0000000000
C          C       0.26417   0.20775  -0.00376   0.0000000000
C          C       0.30815   0.22828   0.05932   0.0000000000
C          C       0.32496   0.20765   0.06774   0.0000000000
C          C       0.31707   0.18712   0.15837   0.0000000000
C          C       0.33322   0.16652   0.15884   0.0000000000
C          C       0.35871   0.16601   0.07385   0.0000000000
C          C       0.36763   0.18669  -0.00890   0.0000000000
C          C       0.35093   0.20696  -0.01388   0.0000000000
H          H       0.27353   0.19195  -0.02588   0.0000000000
H          H       0.29927   0.18685   0.22602   0.0000000000
H          H       0.32617   0.15208   0.22325   0.0000000000
H          H       0.38622   0.18703  -0.06921   0.0000000000
H          H       0.35797   0.22124  -0.08074   0.0000000000
C          C       0.10871   0.39419   0.12609   0.0000000000
C          C       0.11528   0.41745   0.17910   0.0000000000
C          C       0.09631   0.43602   0.16327   0.0000000000
C          C       0.07015   0.43170   0.09406   0.0000000000
C          C       0.06315   0.40854   0.04282   0.0000000000
C          C       0.08226   0.39002   0.05868   0.0000000000
C          C       0.05277   0.44898   0.07582   0.0000000000
C          C       0.03705   0.46496   0.05648   0.0000000000
C          C       0.01979   0.48220   0.03188   0.0000000000
C          C       0.99430   0.47650  -0.04241   0.0000000000
C          C       0.97438   0.49394  -0.07519   0.0000000000
H          H       0.13412   0.42121   0.22930   0.0000000000
H          H       0.10194   0.45263   0.20224   0.0000000000
H          H       0.04424   0.40491  -0.00724   0.0000000000
H          H       0.07659   0.37347   0.01961   0.0000000000
H          H       0.01009   0.54071   0.07430   0.0000000000
C          C       0.12848   0.37615   0.14089   0.0000000000
N          N       0.12437   0.35399   0.08023   0.0000000000
H          H       0.35324   0.11974   0.16989   0.0000000000
C          C       0.39156   0.10665   0.09231   0.0000000000
C          C       0.38557   0.08305   0.13903   0.0000000000
C          C       0.40501   0.06493   0.11784   0.0000000000
C          C       0.43102   0.07004   0.04931   0.0000000000
C          C       0.43730   0.09346   0.00185   0.0000000000
C          C       0.41775   0.11154   0.02326   0.0000000000
C          C       0.44896   0.05319   0.03129   0.0000000000
C          C       0.46522   0.03749   0.01759   0.0000000000
C          C       0.48245   0.01996   0.00675   0.0000000000
C          C       0.50921   0.02235  -0.06162   0.0000000000
C          C       0.52634   0.00229  -0.06722   0.0000000000
H          H       0.36688   0.07877   0.18922   0.0000000000
H          H       0.39991   0.04806   0.15329   0.0000000000
H          H       0.45604   0.09762  -0.04852   0.0000000000
H          H       0.42293   0.12834  -0.01252   0.0000000000
H          H       0.45435   0.99583   0.11706   0.0000000000
C          C       0.37148   0.12430   0.11506   0.0000000000
N          N       0.37542   0.14689   0.06459   0.0000000000
H          H       0.14673   0.38015   0.19757   0.0000000000
C          C       0.72072   0.77150  -0.03000   0.0000000000
C          C       0.76439   0.79226   0.00679   0.0000000000
C          C       0.80873   0.77185  -0.05128   0.0000000000
C          C       0.82534   0.79258  -0.05928   0.0000000000
C          C       0.85121   0.79351   0.02300   0.0000000000
C          C       0.86769   0.81388   0.01731   0.0000000000
C          C       0.85860   0.83445  -0.06649   0.0000000000
C          C       0.83316   0.83373  -0.15157   0.0000000000
C          C       0.81729   0.81301  -0.15085   0.0000000000
H          H       0.77356   0.80804   0.03177   0.0000000000
H          H       0.85834   0.77934   0.09076   0.0000000000
H          H       0.88624   0.81371   0.07784   0.0000000000
H          H       0.82597   0.84808  -0.21647   0.0000000000
H          H       0.79959   0.81312  -0.21938   0.0000000000
C          C       0.22011   0.27197   0.02522   0.0000000000
C          C       0.26393   0.29267  -0.00635   0.0000000000
C          C       0.30802   0.27235   0.05738   0.0000000000
C          C       0.32470   0.29304   0.06423   0.0000000000
C          C       0.31670   0.31369   0.15412   0.0000000000
C          C       0.33277   0.33429   0.15424   0.0000000000
C          C       0.35824   0.33473   0.06901   0.0000000000
C          C       0.36722   0.31398  -0.01373   0.0000000000
C          C       0.35064   0.29366  -0.01770   0.0000000000
H          H       0.27320   0.30843  -0.03011   0.0000000000
H          H       0.29889   0.31403   0.22162   0.0000000000
H          H       0.32569   0.34878   0.21862   0.0000000000
H          H       0.38578   0.31360  -0.07449   0.0000000000
H          H       0.35775   0.27928  -0.08379   0.0000000000
C          C       0.10897   0.10611   0.08892   0.0000000000
C          C       0.11512   0.08251   0.13503   0.0000000000
C          C       0.09576   0.06435   0.11419   0.0000000000
C          C       0.06967   0.06944   0.04685   0.0000000000
C          C       0.06323   0.09287   0.00011   0.0000000000
C          C       0.08269   0.11097   0.02109   0.0000000000
C          C       0.05173   0.05261   0.02932   0.0000000000
C          C       0.03535   0.03704   0.01604   0.0000000000
C          C       0.01787   0.01972   0.00579   0.0000000000
C          C       0.99111   0.02245  -0.06158   0.0000000000
C          C       0.97365   0.00264  -0.06611   0.0000000000
H          H       0.13387   0.07826   0.18445   0.0000000000
H          H       0.10098   0.04747   0.14907   0.0000000000
H          H       0.04444   0.09702  -0.04935   0.0000000000
H          H       0.07738   0.12777  -0.01403   0.0000000000
H          H       0.04567   0.99522   0.11512   0.0000000000
C          C       0.12892   0.12383   0.11080   0.0000000000
N          N       0.12488   0.14635   0.05844   0.0000000000
H          H       0.35278   0.38104   0.16706   0.0000000000
H          H       0.14714   0.11940   0.16633   0.0000000000
C          C       0.39108   0.39402   0.08933   0.0000000000
C          C       0.38516   0.41764   0.13694   0.0000000000
C          C       0.40466   0.43567   0.11643   0.0000000000
C          C       0.43066   0.43042   0.04770   0.0000000000
C          C       0.43687   0.40696  -0.00052   0.0000000000
C          C       0.41726   0.38899   0.02016   0.0000000000
C          C       0.44868   0.44716   0.03008   0.0000000000
C          C       0.46504   0.46273   0.01657   0.0000000000
C          C       0.48236   0.48014   0.00611   0.0000000000
C          C       0.50907   0.47761  -0.06283   0.0000000000
C          C       0.52630   0.49756  -0.06777   0.0000000000
H          H       0.36648   0.42202   0.18727   0.0000000000
H          H       0.39962   0.45257   0.15252   0.0000000000
H          H       0.45561   0.40270  -0.05090   0.0000000000
H          H       0.42239   0.37217  -0.01625   0.0000000000
H          H       0.45442   0.50443   0.11802   0.0000000000
C          C       0.37098   0.37644   0.11150   0.0000000000
N          N       0.37489   0.35384   0.05987   0.0000000000
C          C       0.82196   0.74980  -0.07352   0.0000000000
C          C       0.73560   0.74976  -0.02942   0.0000000000
H          H       0.84225   0.74980  -0.10691   0.0000000000
C          C       0.67884   0.74964  -0.08275   0.0000000000
C          C       0.76503   0.74978  -0.02738   0.0000000000
H          H       0.65866   0.74957  -0.11853   0.0000000000
O          O       0.95100   0.48529  -0.14780   0.0000000000
C          C       0.92599   0.49641  -0.19790   0.0000000000
H          H       0.91275   0.48312  -0.25544   0.0000000000
H          H       0.92989   0.51013  -0.29196   0.0000000000
H          H       0.91554   0.50401  -0.08780   0.0000000000
O          O       0.52074   0.45752  -0.12789   0.0000000000
C          C       0.51114   0.43373  -0.14206   0.0000000000
H          H       0.52698   0.42315  -0.20386   0.0000000000
H          H       0.49265   0.43291  -0.21923   0.0000000000
H          H       0.50714   0.42631  -0.01647   0.0000000000
O          O       0.52098   0.04237  -0.12565   0.0000000000
C          C       0.51146   0.06620  -0.13939   0.0000000000
H          H       0.52734   0.07669  -0.20077   0.0000000000
H          H       0.50743   0.07368  -0.01368   0.0000000000
H          H       0.49299   0.06707  -0.21678   0.0000000000
O          O       0.97961   0.04261  -0.12570   0.0000000000
C          C       0.98954   0.06627  -0.14135   0.0000000000
H          H       0.97379   0.07692  -0.20275   0.0000000000
H          H       0.00796   0.06676  -0.21957   0.0000000000
H          H       0.99379   0.07385  -0.01632   0.0000000000
C          C       0.27916   0.27202   0.52834   0.0000000000
C          C       0.23537   0.29264   0.49239   0.0000000000
C          C       0.19116   0.27226   0.55191   0.0000000000
C          C       0.17451   0.29299   0.56250   0.0000000000
C          C       0.14842   0.29410   0.48300   0.0000000000
C          C       0.13185   0.31444   0.49411   0.0000000000
C          C       0.14102   0.33478   0.58100   0.0000000000
C          C       0.16679   0.33389   0.66210   0.0000000000
C          C       0.18277   0.31325   0.65558   0.0000000000
H          H       0.22611   0.30840   0.46814   0.0000000000
H          H       0.14118   0.28007   0.41379   0.0000000000
H          H       0.11312   0.31440   0.43569   0.0000000000
H          H       0.17417   0.34806   0.72846   0.0000000000
H          H       0.20072   0.31328   0.72119   0.0000000000
C          C       0.77978   0.77156   0.47466   0.0000000000
C          C       0.73583   0.79225   0.50376   0.0000000000
C          C       0.69185   0.77172   0.44067   0.0000000000
C          C       0.67504   0.79235   0.43226   0.0000000000
C          C       0.68293   0.81288   0.34163   0.0000000000
C          C       0.66679   0.83348   0.34115   0.0000000000
C          C       0.64129   0.83399   0.42615   0.0000000000
C          C       0.63237   0.81331   0.50890   0.0000000000
C          C       0.64907   0.79304   0.51388   0.0000000000
H          H       0.72647   0.80805   0.52588   0.0000000000
H          H       0.70073   0.81315   0.27398   0.0000000000
H          H       0.67383   0.84792   0.27675   0.0000000000
H          H       0.61378   0.81297   0.56921   0.0000000000
H          H       0.64203   0.77876   0.58074   0.0000000000
C          C       0.89129   0.60581   0.37391   0.0000000000
C          C       0.88472   0.58255   0.32090   0.0000000000
C          C       0.90370   0.56398   0.33673   0.0000000000
C          C       0.92985   0.56830   0.40594   0.0000000000
C          C       0.93685   0.59146   0.45717   0.0000000000
C          C       0.91774   0.60998   0.44132   0.0000000000
C          C       0.94723   0.55102   0.42417   0.0000000000
C          C       0.96295   0.53504   0.44352   0.0000000000
C          C       0.98021   0.51780   0.46812   0.0000000000
C          C       0.00570   0.52350   0.54241   0.0000000000
C          C       0.02562   0.50606   0.57519   0.0000000000
H          H       0.86588   0.57879   0.27070   0.0000000000
H          H       0.89806   0.54737   0.29775   0.0000000000
H          H       0.95576   0.59509   0.50724   0.0000000000
H          H       0.92341   0.62653   0.48039   0.0000000000
H          H       0.98991   0.45929   0.42569   0.0000000000
C          C       0.87152   0.62385   0.35910   0.0000000000
N          N       0.87563   0.64601   0.41976   0.0000000000
H          H       0.64676   0.88026   0.33010   0.0000000000
C          C       0.60844   0.89335   0.40769   0.0000000000
C          C       0.61443   0.91695   0.36096   0.0000000000
C          C       0.59499   0.93507   0.38216   0.0000000000
C          C       0.56898   0.92996   0.45069   0.0000000000
C          C       0.56270   0.90654   0.49815   0.0000000000
C          C       0.58225   0.88846   0.47673   0.0000000000
C          C       0.55104   0.94681   0.46871   0.0000000000
C          C       0.53478   0.96251   0.48240   0.0000000000
C          C       0.51755   0.98004   0.49324   0.0000000000
C          C       0.49080   0.97765   0.56162   0.0000000000
C          C       0.47366   0.99771   0.56722   0.0000000000
H          H       0.63312   0.92123   0.31078   0.0000000000
H          H       0.60009   0.95194   0.34670   0.0000000000
H          H       0.54396   0.90238   0.54852   0.0000000000
H          H       0.57707   0.87166   0.51253   0.0000000000
H          H       0.54565   0.00417   0.38294   0.0000000000
C          C       0.62852   0.87570   0.38494   0.0000000000
N          N       0.62458   0.85311   0.43540   0.0000000000
H          H       0.85327   0.61985   0.30243   0.0000000000
C          C       0.27928   0.22850   0.53000   0.0000000000
C          C       0.23561   0.20774   0.49320   0.0000000000
C          C       0.19127   0.22815   0.55127   0.0000000000
C          C       0.17467   0.20742   0.55928   0.0000000000
C          C       0.14879   0.20649   0.47700   0.0000000000
C          C       0.13231   0.18612   0.48268   0.0000000000
C          C       0.14140   0.16555   0.56649   0.0000000000
C          C       0.16684   0.16627   0.65157   0.0000000000
C          C       0.18271   0.18699   0.65085   0.0000000000
H          H       0.22644   0.19196   0.46823   0.0000000000
H          H       0.14166   0.22066   0.40924   0.0000000000
H          H       0.11376   0.18629   0.42215   0.0000000000
H          H       0.17403   0.15192   0.71647   0.0000000000
H          H       0.20041   0.18688   0.71938   0.0000000000
C          C       0.77989   0.72803   0.47478   0.0000000000
C          C       0.73607   0.70733   0.50635   0.0000000000
C          C       0.69198   0.72765   0.44262   0.0000000000
C          C       0.67530   0.70696   0.43577   0.0000000000
C          C       0.68330   0.68631   0.34588   0.0000000000
C          C       0.66723   0.66571   0.34575   0.0000000000
C          C       0.64176   0.66527   0.43099   0.0000000000
C          C       0.63278   0.68602   0.51373   0.0000000000
C          C       0.64936   0.70634   0.51770   0.0000000000
H          H       0.72680   0.69157   0.53012   0.0000000000
H          H       0.70111   0.68597   0.27838   0.0000000000
H          H       0.67431   0.65122   0.28138   0.0000000000
H          H       0.61422   0.68640   0.57449   0.0000000000
H          H       0.64225   0.72072   0.58379   0.0000000000
C          C       0.89103   0.89389   0.41108   0.0000000000
C          C       0.88488   0.91749   0.36497   0.0000000000
C          C       0.90424   0.93565   0.38581   0.0000000000
C          C       0.93033   0.93056   0.45315   0.0000000000
C          C       0.93677   0.90713   0.49989   0.0000000000
C          C       0.91731   0.88903   0.47890   0.0000000000
C          C       0.94827   0.94739   0.47067   0.0000000000
C          C       0.96465   0.96296   0.48396   0.0000000000
C          C       0.98213   0.98028   0.49421   0.0000000000
C          C       0.00889   0.97755   0.56159   0.0000000000
C          C       0.02635   0.99736   0.56611   0.0000000000
H          H       0.86613   0.92174   0.31555   0.0000000000
H          H       0.89902   0.95253   0.35092   0.0000000000
H          H       0.95556   0.90298   0.54935   0.0000000000
H          H       0.92262   0.87223   0.51403   0.0000000000
H          H       0.95433   0.00478   0.38488   0.0000000000
C          C       0.87108   0.87617   0.38920   0.0000000000
N          N       0.87513   0.85365   0.44156   0.0000000000
H          H       0.64722   0.61896   0.33294   0.0000000000
H          H       0.85286   0.88060   0.33366   0.0000000000
C          C       0.60892   0.60598   0.41067   0.0000000000
C          C       0.61484   0.58236   0.36306   0.0000000000
C          C       0.59534   0.56433   0.38357   0.0000000000
C          C       0.56934   0.56958   0.45230   0.0000000000
C          C       0.56313   0.59304   0.50052   0.0000000000
C          C       0.58274   0.61101   0.47983   0.0000000000
C          C       0.55132   0.55284   0.46992   0.0000000000
C          C       0.53496   0.53727   0.48342   0.0000000000
C          C       0.51764   0.51986   0.49389   0.0000000000
C          C       0.49093   0.52239   0.56283   0.0000000000
C          C       0.47370   0.50244   0.56777   0.0000000000
H          H       0.63352   0.57798   0.31272   0.0000000000
H          H       0.60038   0.54743   0.34747   0.0000000000
H          H       0.54439   0.59730   0.55090   0.0000000000
H          H       0.57761   0.62783   0.51625   0.0000000000
H          H       0.54558   0.49557   0.38197   0.0000000000
C          C       0.62902   0.62356   0.38850   0.0000000000
N          N       0.62511   0.64617   0.44012   0.0000000000
C          C       0.17804   0.25020   0.57352   0.0000000000
C          C       0.26440   0.25024   0.52942   0.0000000000
H          H       0.15775   0.25020   0.60691   0.0000000000
C          C       0.32116   0.25036   0.58275   0.0000000000
C          C       0.23497   0.25022   0.52738   0.0000000000
H          H       0.34134   0.25043   0.61853   0.0000000000
O          O       0.04900   0.51471   0.64780   0.0000000000
C          C       0.07401   0.50359   0.69790   0.0000000000
H          H       0.08725   0.51688   0.75543   0.0000000000
H          H       0.07011   0.48987   0.79195   0.0000000000
H          H       0.08446   0.49599   0.58780   0.0000000000
O          O       0.47926   0.54248   0.62789   0.0000000000
C          C       0.48886   0.56627   0.64206   0.0000000000
H          H       0.47302   0.57685   0.70386   0.0000000000
H          H       0.50736   0.56709   0.71923   0.0000000000
H          H       0.49286   0.57369   0.51648   0.0000000000
O          O       0.47902   0.95763   0.62565   0.0000000000
C          C       0.48854   0.93380   0.63939   0.0000000000
H          H       0.47266   0.92331   0.70077   0.0000000000
H          H       0.49257   0.92632   0.51368   0.0000000000
H          H       0.50701   0.93293   0.71678   0.0000000000
O          O       0.02039   0.95739   0.62570   0.0000000000
C          C       0.01046   0.93373   0.64135   0.0000000000
H          H       0.02621   0.92308   0.70275   0.0000000000
H          H       0.99204   0.93324   0.71957   0.0000000000
H          H       0.00621   0.92615   0.51632   0.0000000000
C          C       0.72084   0.72798   0.47165   0.0000000000
C          C       0.76463   0.70736   0.50760   0.0000000000
C          C       0.80884   0.72774   0.44809   0.0000000000
C          C       0.82549   0.70701   0.43749   0.0000000000
C          C       0.85158   0.70590   0.51700   0.0000000000
C          C       0.86815   0.68556   0.50588   0.0000000000
C          C       0.85898   0.66522   0.41899   0.0000000000
C          C       0.83321   0.66611   0.33790   0.0000000000
C          C       0.81723   0.68675   0.34442   0.0000000000
H          H       0.77389   0.69160   0.53185   0.0000000000
H          H       0.85882   0.71993   0.58620   0.0000000000
H          H       0.88688   0.68560   0.56431   0.0000000000
H          H       0.82583   0.65194   0.27154   0.0000000000
H          H       0.79928   0.68672   0.27880   0.0000000000
C          C       0.22022   0.22844   0.52533   0.0000000000
C          C       0.26417   0.20775   0.49623   0.0000000000
C          C       0.30815   0.22828   0.55932   0.0000000000
C          C       0.32496   0.20765   0.56774   0.0000000000
C          C       0.31707   0.18712   0.65837   0.0000000000
C          C       0.33322   0.16652   0.65885   0.0000000000
C          C       0.35871   0.16601   0.57385   0.0000000000
C          C       0.36763   0.18669   0.49109   0.0000000000
C          C       0.35093   0.20696   0.48611   0.0000000000
H          H       0.27353   0.19195   0.47411   0.0000000000
H          H       0.29927   0.18685   0.72602   0.0000000000
H          H       0.32617   0.15208   0.72325   0.0000000000
H          H       0.38622   0.18703   0.43078   0.0000000000
H          H       0.35797   0.22124   0.41926   0.0000000000
C          C       0.10871   0.39419   0.62609   0.0000000000
C          C       0.11528   0.41745   0.67910   0.0000000000
C          C       0.09631   0.43602   0.66327   0.0000000000
C          C       0.07015   0.43170   0.59406   0.0000000000
C          C       0.06315   0.40854   0.54283   0.0000000000
C          C       0.08226   0.39002   0.55868   0.0000000000
C          C       0.05277   0.44898   0.57582   0.0000000000
C          C       0.03705   0.46496   0.55648   0.0000000000
C          C       0.01979   0.48220   0.53188   0.0000000000
C          C       0.99430   0.47650   0.45758   0.0000000000
C          C       0.97438   0.49394   0.42481   0.0000000000
H          H       0.13412   0.42121   0.72930   0.0000000000
H          H       0.10194   0.45263   0.70225   0.0000000000
H          H       0.04424   0.40491   0.49275   0.0000000000
H          H       0.07659   0.37347   0.51961   0.0000000000
H          H       0.01009   0.54071   0.57430   0.0000000000
C          C       0.12848   0.37615   0.64089   0.0000000000
N          N       0.12437   0.35399   0.58024   0.0000000000
H          H       0.35324   0.11974   0.66989   0.0000000000
C          C       0.39156   0.10665   0.59231   0.0000000000
C          C       0.38557   0.08305   0.63903   0.0000000000
C          C       0.40501   0.06493   0.61784   0.0000000000
C          C       0.43102   0.07004   0.54930   0.0000000000
C          C       0.43730   0.09346   0.50185   0.0000000000
C          C       0.41775   0.11154   0.52326   0.0000000000
C          C       0.44896   0.05319   0.53129   0.0000000000
C          C       0.46522   0.03749   0.51759   0.0000000000
C          C       0.48245   0.01996   0.50675   0.0000000000
C          C       0.50921   0.02235   0.43837   0.0000000000
C          C       0.52634   0.00229   0.43277   0.0000000000
H          H       0.36688   0.07877   0.68922   0.0000000000
H          H       0.39991   0.04806   0.65329   0.0000000000
H          H       0.45604   0.09762   0.45147   0.0000000000
H          H       0.42293   0.12834   0.48747   0.0000000000
H          H       0.45435   0.99583   0.61706   0.0000000000
C          C       0.37148   0.12430   0.61506   0.0000000000
N          N       0.37542   0.14689   0.56459   0.0000000000
H          H       0.14673   0.38015   0.69757   0.0000000000
C          C       0.72072   0.77150   0.46999   0.0000000000
C          C       0.76439   0.79226   0.50679   0.0000000000
C          C       0.80873   0.77185   0.44872   0.0000000000
C          C       0.82534   0.79258   0.44072   0.0000000000
C          C       0.85121   0.79351   0.52300   0.0000000000
C          C       0.86769   0.81388   0.51731   0.0000000000
C          C       0.85860   0.83445   0.43350   0.0000000000
C          C       0.83316   0.83373   0.34842   0.0000000000
C          C       0.81729   0.81301   0.34915   0.0000000000
H          H       0.77356   0.80804   0.53177   0.0000000000
H          H       0.85834   0.77934   0.59076   0.0000000000
H          H       0.88624   0.81371   0.57784   0.0000000000
H          H       0.82597   0.84808   0.28353   0.0000000000
H          H       0.79959   0.81312   0.28062   0.0000000000
C          C       0.22011   0.27197   0.52522   0.0000000000
C          C       0.26393   0.29267   0.49364   0.0000000000
C          C       0.30802   0.27235   0.55737   0.0000000000
C          C       0.32470   0.29304   0.56422   0.0000000000
C          C       0.31670   0.31369   0.65412   0.0000000000
C          C       0.33277   0.33429   0.65424   0.0000000000
C          C       0.35824   0.33473   0.56901   0.0000000000
C          C       0.36722   0.31398   0.48627   0.0000000000
C          C       0.35064   0.29366   0.48229   0.0000000000
H          H       0.27320   0.30843   0.46988   0.0000000000
H          H       0.29889   0.31403   0.72162   0.0000000000
H          H       0.32569   0.34878   0.71861   0.0000000000
H          H       0.38578   0.31360   0.42551   0.0000000000
H          H       0.35775   0.27928   0.41620   0.0000000000
C          C       0.10897   0.10611   0.58892   0.0000000000
C          C       0.11512   0.08251   0.63503   0.0000000000
C          C       0.09576   0.06435   0.61419   0.0000000000
C          C       0.06967   0.06944   0.54685   0.0000000000
C          C       0.06323   0.09287   0.50011   0.0000000000
C          C       0.08269   0.11097   0.52109   0.0000000000
C          C       0.05173   0.05261   0.52932   0.0000000000
C          C       0.03535   0.03704   0.51604   0.0000000000
C          C       0.01787   0.01972   0.50578   0.0000000000
C          C       0.99111   0.02245   0.43841   0.0000000000
C          C       0.97365   0.00264   0.43389   0.0000000000
H          H       0.13387   0.07826   0.68445   0.0000000000
H          H       0.10098   0.04747   0.64907   0.0000000000
H          H       0.04444   0.09702   0.45065   0.0000000000
H          H       0.07738   0.12777   0.48597   0.0000000000
H          H       0.04567   0.99522   0.61512   0.0000000000
C          C       0.12892   0.12383   0.61080   0.0000000000
N          N       0.12488   0.14635   0.55844   0.0000000000
H          H       0.35278   0.38104   0.66705   0.0000000000
H          H       0.14714   0.11940   0.66634   0.0000000000
C          C       0.39108   0.39402   0.58933   0.0000000000
C          C       0.38516   0.41764   0.63693   0.0000000000
C          C       0.40466   0.43567   0.61643   0.0000000000
C          C       0.43066   0.43042   0.54770   0.0000000000
C          C       0.43687   0.40696   0.49948   0.0000000000
C          C       0.41726   0.38899   0.52016   0.0000000000
C          C       0.44868   0.44716   0.53008   0.0000000000
C          C       0.46504   0.46273   0.51658   0.0000000000
C          C       0.48236   0.48014   0.50611   0.0000000000
C          C       0.50907   0.47761   0.43717   0.0000000000
C          C       0.52630   0.49756   0.43222   0.0000000000
H          H       0.36648   0.42202   0.68727   0.0000000000
H          H       0.39962   0.45257   0.65252   0.0000000000
H          H       0.45561   0.40270   0.44910   0.0000000000
H          H       0.42239   0.37217   0.48375   0.0000000000
H          H       0.45442   0.50443   0.61803   0.0000000000
C          C       0.37098   0.37644   0.61150   0.0000000000
N          N       0.37489   0.35384   0.55987   0.0000000000
C          C       0.82196   0.74980   0.42648   0.0000000000
C          C       0.73560   0.74976   0.47057   0.0000000000
H          H       0.84225   0.74980   0.39308   0.0000000000
C          C       0.67884   0.74964   0.41724   0.0000000000
C          C       0.76503   0.74978   0.47262   0.0000000000
H          H       0.65866   0.74957   0.38146   0.0000000000
O          O       0.95100   0.48529   0.35220   0.0000000000
C          C       0.92599   0.49641   0.30210   0.0000000000
H          H       0.91275   0.48312   0.24456   0.0000000000
H          H       0.92989   0.51013   0.20804   0.0000000000
H          H       0.91554   0.50401   0.41220   0.0000000000
O          O       0.52074   0.45752   0.37211   0.0000000000
C          C       0.51114   0.43373   0.35794   0.0000000000
H          H       0.52698   0.42315   0.29614   0.0000000000
H          H       0.49265   0.43291   0.28076   0.0000000000
H          H       0.50714   0.42631   0.48352   0.0000000000
O          O       0.52098   0.04237   0.37435   0.0000000000
C          C       0.51146   0.06620   0.36061   0.0000000000
H          H       0.52734   0.07669   0.29923   0.0000000000
H          H       0.50743   0.07368   0.48632   0.0000000000
H          H       0.49299   0.06707   0.28322   0.0000000000
O          O       0.97961   0.04261   0.37430   0.0000000000
C          C       0.98954   0.06627   0.35865   0.0000000000
H          H       0.97379   0.07692   0.29724   0.0000000000
H          H       0.00796   0.06676   0.28043   0.0000000000
H          H       0.99379   0.07385   0.48367   0.0000000000
