data_crystal
 
_cell_length_a    25.00000
_cell_length_b    25.00000
_cell_length_c    10.00000
_cell_angle_alpha 90.00000
_cell_angle_beta  90.00000
_cell_angle_gamma 90.00000
 
_symmetry_space_group_name_Hall 'P 1'
_symmetry_space_group_name_H-M  'P 1'
 
loop_
_symmetry_equiv_pos_as_xyz
 'x,y,z' 
 
loop_
_atom_site_label
_atom_site_type_symbol
_atom_site_fract_x
_atom_site_fract_y
_atom_site_fract_z
_atom_site_charge
C          C       0.36249   0.78084   0.25000   0.0000000000
C          C       0.63751   0.21916   0.25000   0.0000000000
C          C       0.21916   0.36249   0.25000   0.0000000000
C          C       0.78084   0.63751   0.25000   0.0000000000
C          C       0.63751   0.78084   0.25000   0.0000000000
C          C       0.36249   0.21916   0.25000   0.0000000000
C          C       0.78084   0.36249   0.25000   0.0000000000
C          C       0.21916   0.63751   0.25000   0.0000000000
C          C       0.38006   0.72695   0.25000   0.0000000000
C          C       0.61994   0.27305   0.25000   0.0000000000
C          C       0.27305   0.38006   0.25000   0.0000000000
C          C       0.72695   0.61994   0.25000   0.0000000000
C          C       0.61994   0.72695   0.25000   0.0000000000
C          C       0.38006   0.27305   0.25000   0.0000000000
C          C       0.72695   0.38006   0.25000   0.0000000000
C          C       0.27305   0.61994   0.25000   0.0000000000
C          C       0.43531   0.71476   0.25000   0.0000000000
C          C       0.56469   0.28524   0.25000   0.0000000000
C          C       0.28524   0.43531   0.25000   0.0000000000
C          C       0.71476   0.56469   0.25000   0.0000000000
C          C       0.56469   0.71476   0.25000   0.0000000000
C          C       0.43531   0.28524   0.25000   0.0000000000
C          C       0.71476   0.43531   0.25000   0.0000000000
C          C       0.28524   0.56469   0.25000   0.0000000000
C          C       0.47216   0.75730   0.25000   0.0000000000
C          C       0.52784   0.24270   0.25000   0.0000000000
C          C       0.24270   0.47216   0.25000   0.0000000000
C          C       0.75730   0.52784   0.25000   0.0000000000
C          C       0.52784   0.75730   0.25000   0.0000000000
C          C       0.47216   0.24270   0.25000   0.0000000000
C          C       0.75730   0.47216   0.25000   0.0000000000
C          C       0.24270   0.52784   0.25000   0.0000000000
C          C       0.45473   0.81050   0.25000   0.0000000000
C          C       0.54527   0.18950   0.25000   0.0000000000
C          C       0.18950   0.45473   0.25000   0.0000000000
C          C       0.81050   0.54527   0.25000   0.0000000000
C          C       0.54527   0.81050   0.25000   0.0000000000
C          C       0.45473   0.18950   0.25000   0.0000000000
C          C       0.81050   0.45473   0.25000   0.0000000000
C          C       0.18950   0.54527   0.25000   0.0000000000
C          C       0.39992   0.82292   0.25000   0.0000000000
C          C       0.60008   0.17708   0.25000   0.0000000000
C          C       0.17708   0.39992   0.25000   0.0000000000
C          C       0.82292   0.60008   0.25000   0.0000000000
C          C       0.60008   0.82292   0.25000   0.0000000000
C          C       0.39992   0.17708   0.25000   0.0000000000
C          C       0.82292   0.39992   0.25000   0.0000000000
C          C       0.17708   0.60008   0.25000   0.0000000000
C          C       0.34481   0.68893   0.25000   0.0000000000
C          C       0.65519   0.31107   0.25000   0.0000000000
C          C       0.31107   0.34481   0.25000   0.0000000000
C          C       0.68893   0.65519   0.25000   0.0000000000
C          C       0.65519   0.68893   0.25000   0.0000000000
C          C       0.34481   0.31107   0.25000   0.0000000000
C          C       0.68893   0.34481   0.25000   0.0000000000
C          C       0.31107   0.65519   0.25000   0.0000000000
H          H       0.31783   0.79005   0.25000   0.0000000000
H          H       0.68217   0.20995   0.25000   0.0000000000
H          H       0.20995   0.31783   0.25000   0.0000000000
H          H       0.79005   0.68217   0.25000   0.0000000000
H          H       0.68217   0.79005   0.25000   0.0000000000
H          H       0.31783   0.20995   0.25000   0.0000000000
H          H       0.79005   0.31783   0.25000   0.0000000000
H          H       0.20995   0.68217   0.25000   0.0000000000
H          H       0.44907   0.67128   0.25000   0.0000000000
H          H       0.55093   0.32872   0.25000   0.0000000000
H          H       0.32872   0.44907   0.25000   0.0000000000
H          H       0.67128   0.55093   0.25000   0.0000000000
H          H       0.55093   0.67128   0.25000   0.0000000000
H          H       0.44907   0.32872   0.25000   0.0000000000
H          H       0.67128   0.44907   0.25000   0.0000000000
H          H       0.32872   0.55093   0.25000   0.0000000000
H          H       0.38635   0.86275   0.24921   0.0000000000
H          H       0.61365   0.13725   0.24921   0.0000000000
H          H       0.13725   0.38635   0.24921   0.0000000000
H          H       0.86275   0.61365   0.24921   0.0000000000
H          H       0.61365   0.86275   0.25079   0.0000000000
H          H       0.38635   0.13725   0.25079   0.0000000000
H          H       0.86275   0.38635   0.25079   0.0000000000
H          H       0.13725   0.61365   0.25079   0.0000000000
C          C       0.85145   0.50000   0.25000   0.0000000000
C          C       0.14855   0.50000   0.25000   0.0000000000
C          C       0.50000   0.85145   0.25000   0.0000000000
C          C       0.50000   0.14855   0.25000   0.0000000000
C          C       0.09944   0.48730   0.35319   0.0000000000
C          C       0.90056   0.51270   0.35319   0.0000000000
C          C       0.51270   0.09944   0.35319   0.0000000000
C          C       0.48730   0.90056   0.35319   0.0000000000
C          C       0.90056   0.48730   0.14682   0.0000000000
C          C       0.09944   0.51270   0.14682   0.0000000000
C          C       0.48730   0.09944   0.14682   0.0000000000
C          C       0.51270   0.90056   0.14682   0.0000000000
O          O       0.04399   0.47096   0.32821   0.0000000000
O          O       0.95601   0.52904   0.32821   0.0000000000
O          O       0.52904   0.04399   0.32821   0.0000000000
O          O       0.47096   0.95601   0.32821   0.0000000000
O          O       0.95601   0.47096   0.17179   0.0000000000
O          O       0.04399   0.52904   0.17179   0.0000000000
O          O       0.47096   0.04399   0.17179   0.0000000000
O          O       0.52904   0.95601   0.17179   0.0000000000
B          B       0.00000   0.50000   0.25000   0.0000000000
B          B       0.50000  -0.00000   0.25000   0.0000000000
H          H       0.11560   0.45706   0.41862   0.0000000000
H          H       0.88440   0.54294   0.41862   0.0000000000
H          H       0.54294   0.11560   0.41862   0.0000000000
H          H       0.45706   0.88440   0.41862   0.0000000000
H          H       0.88440   0.45706   0.08138   0.0000000000
H          H       0.11560   0.54294   0.08138   0.0000000000
H          H       0.45706   0.11560   0.08138   0.0000000000
H          H       0.54294   0.88440   0.08138   0.0000000000
H          H       0.09277   0.52602   0.39688   0.0000000000
H          H       0.90723   0.47398   0.39688   0.0000000000
H          H       0.47398   0.09277   0.39688   0.0000000000
H          H       0.52602   0.90723   0.39688   0.0000000000
H          H       0.90723   0.52602   0.10312   0.0000000000
H          H       0.09277   0.47398   0.10312   0.0000000000
H          H       0.52602   0.09277   0.10312   0.0000000000
H          H       0.47398   0.90723   0.10312   0.0000000000
Li         Li      0.40000  -0.00000   0.25000   0.0000000000
Li         Li     -0.00000   0.40000   0.25000   0.0000000000
C          C       0.36249   0.78084   0.75000   0.0000000000
C          C       0.63751   0.21916   0.75000   0.0000000000
C          C       0.21916   0.36249   0.75000   0.0000000000
C          C       0.78084   0.63751   0.75000   0.0000000000
C          C       0.63751   0.78084   0.75000   0.0000000000
C          C       0.36249   0.21916   0.75000   0.0000000000
C          C       0.78084   0.36249   0.75000   0.0000000000
C          C       0.21916   0.63751   0.75000   0.0000000000
C          C       0.38006   0.72695   0.75000   0.0000000000
C          C       0.61994   0.27305   0.75000   0.0000000000
C          C       0.27305   0.38006   0.75000   0.0000000000
C          C       0.72695   0.61994   0.75000   0.0000000000
C          C       0.61994   0.72695   0.75000   0.0000000000
C          C       0.38006   0.27305   0.75000   0.0000000000
C          C       0.72695   0.38006   0.75000   0.0000000000
C          C       0.27305   0.61994   0.75000   0.0000000000
C          C       0.43531   0.71476   0.75000   0.0000000000
C          C       0.56469   0.28524   0.75000   0.0000000000
C          C       0.28524   0.43531   0.75000   0.0000000000
C          C       0.71476   0.56469   0.75000   0.0000000000
C          C       0.56469   0.71476   0.75000   0.0000000000
C          C       0.43531   0.28524   0.75000   0.0000000000
C          C       0.71476   0.43531   0.75000   0.0000000000
C          C       0.28524   0.56469   0.75000   0.0000000000
C          C       0.47216   0.75730   0.75000   0.0000000000
C          C       0.52784   0.24270   0.75000   0.0000000000
C          C       0.24270   0.47216   0.75000   0.0000000000
C          C       0.75730   0.52784   0.75000   0.0000000000
C          C       0.52784   0.75730   0.75000   0.0000000000
C          C       0.47216   0.24270   0.75000   0.0000000000
C          C       0.75730   0.47216   0.75000   0.0000000000
C          C       0.24270   0.52784   0.75000   0.0000000000
C          C       0.45473   0.81050   0.75000   0.0000000000
C          C       0.54527   0.18950   0.75000   0.0000000000
C          C       0.18950   0.45473   0.75000   0.0000000000
C          C       0.81050   0.54527   0.75000   0.0000000000
C          C       0.54527   0.81050   0.75000   0.0000000000
C          C       0.45473   0.18950   0.75000   0.0000000000
C          C       0.81050   0.45473   0.75000   0.0000000000
C          C       0.18950   0.54527   0.75000   0.0000000000
C          C       0.39992   0.82292   0.75000   0.0000000000
C          C       0.60008   0.17708   0.75000   0.0000000000
C          C       0.17708   0.39992   0.75000   0.0000000000
C          C       0.82292   0.60008   0.75000   0.0000000000
C          C       0.60008   0.82292   0.75000   0.0000000000
C          C       0.39992   0.17708   0.75000   0.0000000000
C          C       0.82292   0.39992   0.75000   0.0000000000
C          C       0.17708   0.60008   0.75000   0.0000000000
C          C       0.34481   0.68893   0.75000   0.0000000000
C          C       0.65519   0.31107   0.75000   0.0000000000
C          C       0.31107   0.34481   0.75000   0.0000000000
C          C       0.68893   0.65519   0.75000   0.0000000000
C          C       0.65519   0.68893   0.75000   0.0000000000
C          C       0.34481   0.31107   0.75000   0.0000000000
C          C       0.68893   0.34481   0.75000   0.0000000000
C          C       0.31107   0.65519   0.75000   0.0000000000
H          H       0.31783   0.79005   0.75000   0.0000000000
H          H       0.68217   0.20995   0.75000   0.0000000000
H          H       0.20995   0.31783   0.75000   0.0000000000
H          H       0.79005   0.68217   0.75000   0.0000000000
H          H       0.68217   0.79005   0.75000   0.0000000000
H          H       0.31783   0.20995   0.75000   0.0000000000
H          H       0.79005   0.31783   0.75000   0.0000000000
H          H       0.20995   0.68217   0.75000   0.0000000000
H          H       0.44907   0.67128   0.75000   0.0000000000
H          H       0.55093   0.32872   0.75000   0.0000000000
H          H       0.32872   0.44907   0.75000   0.0000000000
H          H       0.67128   0.55093   0.75000   0.0000000000
H          H       0.55093   0.67128   0.75000   0.0000000000
H          H       0.44907   0.32872   0.75000   0.0000000000
H          H       0.67128   0.44907   0.75000   0.0000000000
H          H       0.32872   0.55093   0.75000   0.0000000000
H          H       0.38635   0.86275   0.74921   0.0000000000
H          H       0.61365   0.13725   0.74921   0.0000000000
H          H       0.13725   0.38635   0.74921   0.0000000000
H          H       0.86275   0.61365   0.74921   0.0000000000
H          H       0.61365   0.86275   0.75079   0.0000000000
H          H       0.38635   0.13725   0.75079   0.0000000000
H          H       0.86275   0.38635   0.75079   0.0000000000
H          H       0.13725   0.61365   0.75079   0.0000000000
C          C       0.85145   0.50000   0.75000   0.0000000000
C          C       0.14855   0.50000   0.75000   0.0000000000
C          C       0.50000   0.85145   0.75000   0.0000000000
C          C       0.50000   0.14855   0.75000   0.0000000000
C          C       0.09944   0.48730   0.85319   0.0000000000
C          C       0.90056   0.51270   0.85319   0.0000000000
C          C       0.51270   0.09944   0.85319   0.0000000000
C          C       0.48730   0.90056   0.85319   0.0000000000
C          C       0.90056   0.48730   0.64682   0.0000000000
C          C       0.09944   0.51270   0.64682   0.0000000000
C          C       0.48730   0.09944   0.64682   0.0000000000
C          C       0.51270   0.90056   0.64682   0.0000000000
O          O       0.04399   0.47096   0.82821   0.0000000000
O          O       0.95601   0.52904   0.82821   0.0000000000
O          O       0.52904   0.04399   0.82821   0.0000000000
O          O       0.47096   0.95601   0.82821   0.0000000000
O          O       0.95601   0.47096   0.67179   0.0000000000
O          O       0.04399   0.52904   0.67179   0.0000000000
O          O       0.47096   0.04399   0.67179   0.0000000000
O          O       0.52904   0.95601   0.67179   0.0000000000
B          B       0.00000   0.50000   0.75000   0.0000000000
B          B       0.50000   0.00000   0.75000   0.0000000000
H          H       0.11560   0.45706   0.91862   0.0000000000
H          H       0.88440   0.54294   0.91862   0.0000000000
H          H       0.54294   0.11560   0.91862   0.0000000000
H          H       0.45706   0.88440   0.91862   0.0000000000
H          H       0.88440   0.45706   0.58138   0.0000000000
H          H       0.11560   0.54294   0.58138   0.0000000000
H          H       0.45706   0.11560   0.58138   0.0000000000
H          H       0.54294   0.88440   0.58138   0.0000000000
H          H       0.09277   0.52602   0.89688   0.0000000000
H          H       0.90723   0.47398   0.89688   0.0000000000
H          H       0.47398   0.09277   0.89688   0.0000000000
H          H       0.52602   0.90723   0.89688   0.0000000000
H          H       0.90723   0.52602   0.60312   0.0000000000
H          H       0.09277   0.47398   0.60312   0.0000000000
H          H       0.52602   0.09277   0.60312   0.0000000000
H          H       0.47398   0.90723   0.60312   0.0000000000
Li         Li      0.40000   0.00000   0.75000   0.0000000000
Li         Li      0.00000   0.40000   0.75000   0.0000000000
