data_crystal

_cell_length_a    42.55000
_cell_length_b    42.55000
_cell_length_c    8.16000
_cell_angle_alpha 90.00000
_cell_angle_beta  90.00000
_cell_angle_gamma 120.00000

_space_group_name_Hall 'P 1'
_space_group_name_H-M_alt  'P 1'

loop_
_symmetry_equiv_pos_as_xyz
'x,y,z' 

loop_
_atom_site_label
_atom_site_type_symbol
_atom_site_fract_x
_atom_site_fract_y
_atom_site_fract_z
H          H       0.51855   3.08197   0.52931 
H          H       0.20156   2.80772   0.48469 
H          H       0.22600   2.77319   0.53975 
H          H       0.25653   2.73824   0.53550 
H          H       0.35834   2.83654   0.41939 
H          H       0.32702   2.87105   0.42745 
H          H       0.54601   3.05195   0.59715 
H          H       0.57711   3.01741   0.59364 
H          H       0.67352   3.11151   0.39632 
H          H       0.64177   3.14570   0.40232 
H          H       0.28142   2.71123   0.40725 
H          H       0.31298   2.67699   0.40284 
H          H       0.41335   2.77361   0.53588 
H          H       0.38254   2.80836   0.54246 
H          H       0.59792   2.98784   0.43656 
H          H       0.62895   2.95287   0.43497 
H          H       0.73111   3.05049   0.53606 
H          H       0.70094   3.08582   0.53991 
H          H       0.43829   2.74183   0.44211 
H          H       0.75480   3.01605   0.49014 
H          H       0.37979   2.63870   0.48425 
H          H       0.47194   2.62331   0.51699 
H          H       0.48730   2.73063   0.45517 
H          H       0.69271   2.91249   0.49094 
H          H       0.78347   2.89389   0.50069 
H          H       0.80174   3.00250   0.49081 
H          H       0.36799   2.57942   0.53314 
H          H       0.52490   2.65035   0.36015 
H          H       0.59087   2.67833   0.35864 
H          H       0.60018   2.77046   0.62873 
H          H       0.53441   2.74323   0.62599 
H          H       0.66841   2.85942   0.34334 
H          H       0.62850   2.79350   0.34077 
H          H       0.70371   2.78117   0.65515 
H          H       0.74425   2.84678   0.65584 
H          H       0.61558   2.67849   0.65138 
H          H       0.64380   2.64074   0.65537 
H          H       0.73160   2.71987   0.34956 
H          H       0.70240   2.75684   0.34320 
H          H       0.65572   2.60367   0.50784 
H          H       0.74994   2.59190   0.49239 
H          H       0.76260   2.69851   0.49681 
H          H       0.64641   2.54429   0.51185 
H          H       0.33736   2.52196   0.63405 
H          H       0.30331   2.45633   0.64523 
H          H       0.39799   2.45317   0.46082 
H          H       0.43149   2.51894   0.45330 
H          H       0.61616   2.48656   0.56389 
H          H       0.58348   2.42103   0.55980 
H          H       0.68280   2.42210   0.41692 
H          H       0.71505   2.48789   0.42390 
H          H       0.27335   2.40292   0.51738 
H          H       0.24103   2.33720   0.50137 
H          H       0.34171   2.33679   0.57294 
H          H       0.37447   2.40210   0.59158 
H          H       0.55758   2.37100   0.41347 
H          H       0.52363   2.30509   0.41299 
H          H       0.62115   2.30245   0.53958 
H          H       0.65560   2.36804   0.54333 
H          H       0.31044   2.27993   0.52275 
H          H       0.58846   2.24471   0.48173 
H          H       0.20680   2.23244   0.50810 
H          H       0.19453   2.12600   0.49346 
H          H       0.30122   2.22095   0.51260 
H          H       0.48454   2.20073   0.48478 
H          H       0.46935   2.09287   0.51507 
H          H       0.57669   2.18526   0.49917 
H          H       0.14793   2.18371   0.49701 
H          H       0.22605   2.10546   0.34523 
H          H       0.25471   2.06795   0.34252 
H          H       0.34082   2.14560   0.65590 
H          H       0.31273   2.18351   0.65894 
H          H       0.43157   2.17134   0.35436 
H          H       0.36570   2.14388   0.35183 
H          H       0.35562   2.05527   0.65229 
H          H       0.42136   2.08260   0.65670 
H          H       0.25126   2.04273   0.65156 
H          H       0.21140   1.97707   0.65398 
H          H       0.28947   1.96493   0.35558 
H          H       0.32916   2.03084   0.35526 
H          H       0.17334   1.93020   0.50127 
H          H       0.15480   1.82151   0.49099 
H          H       0.26395   1.91133   0.49425 
H          H       0.11249   1.88265   0.50036 
H          H       0.05284   1.85759   0.46415 
H          H      -0.01239   1.82600   0.46188 
H          H      -0.01384   1.72358   0.53283 
H          H       0.05158   1.75606   0.52937 
H          H       0.08958   2.15886   0.48488 
H          H       0.02485   2.12748   0.48334 
H          H       0.02352   2.02423   0.50269 
H          H       0.08871   2.05683   0.50256 
H          H      -0.02929   2.10105   0.50129 
H          H      -0.09441   2.06873   0.50147 
H          H      -0.09591   1.96638   0.48881 
H          H      -0.03100   1.99761   0.48694 
H          H      -0.06618   1.79950   0.53420 
H          H      -0.13162   1.76676   0.53079 
H          H      -0.13222   1.66567   0.45984 
H          H      -0.06712   1.69752   0.45753 
H          H      -0.15566   1.94162   0.50112 
H          H      -0.19118   1.64031   0.48644 
H          H       0.51745   0.57393   0.01308 
H          H       0.20047   0.30100  -0.04226 
H          H       0.22401   0.26539  -0.06453 
H          H       0.25424   0.23017  -0.05189 
H          H       0.35770   0.32973   0.02172 
H          H       0.32660   0.36450   0.00595 
H          H       0.54359   0.54286  -0.06695 
H          H       0.57464   0.50822  -0.06783 
H          H       0.67360   0.60407   0.09899 
H          H       0.64185   0.63829   0.09731 
H          H       0.28238   0.20634   0.09376 
H          H       0.31412   0.17216   0.09712 
H          H       0.40926   0.26384  -0.11373 
H          H       0.37820   0.29839  -0.11975 
H          H       0.59778   0.48012   0.08030 
H          H       0.62910   0.44549   0.07716 
H          H       0.72970   0.54255  -0.04991 
H          H       0.69910   0.57757  -0.04966 
H          H       0.43689   0.23453  -0.03206 
H          H       0.75431   0.50839   0.00806 
H          H       0.37826   0.13129   0.00299 
H          H       0.47014   0.11536   0.01415 
H          H       0.48569   0.22327  -0.02122 
H          H       0.69163   0.40486   0.00174 
H          H       0.78193   0.38558  -0.00689 
H          H       0.80089   0.49437   0.00689 
H          H       0.36610   0.07180   0.02099 
H          H       0.52301   0.14479   0.14508 
H          H       0.58887   0.17209   0.14947 
H          H       0.59952   0.26055  -0.15404 
H          H       0.53386   0.23361  -0.15849 
H          H       0.66574   0.35123   0.14091 
H          H       0.62609   0.28531   0.14452 
H          H       0.70328   0.27289  -0.15462 
H          H       0.74347   0.33847  -0.15682 
H          H       0.61409   0.16942  -0.15129 
H          H       0.64268   0.13192  -0.15071 
H          H       0.72986   0.21199   0.15446 
H          H       0.70054   0.24884   0.15509 
H          H       0.65536   0.09549   0.00014 
H          H       0.75061   0.08547   0.00692 
H          H       0.76151   0.19134   0.00823 
H          H       0.64697   0.03673  -0.00518 
H          H       0.33355   0.01343  -0.04691 
H          H       0.29926   0.94771  -0.04714 
H          H       0.39620   0.94545   0.10852 
H          H       0.43007   1.01143   0.10516 
H          H       0.61742   0.98006  -0.06751 
H          H       0.58469   0.91454  -0.06946 
H          H       0.68381   0.91489   0.07058 
H          H       0.71604   0.98072   0.07111 
H          H       0.27153   0.89487   0.09030 
H          H       0.23902   0.82900   0.09213 
H          H       0.33795   0.82889  -0.03222 
H          H       0.37103   0.89458  -0.03685 
H          H       0.55880   0.86370   0.07372 
H          H       0.52512   0.79776   0.06977 
H          H       0.62269   0.79608  -0.06576 
H          H       0.65685   0.86174  -0.06569 
H          H       0.30794   0.77286   0.05787 
H          H       0.58955   0.73742  -0.01649 
H          H       0.20423   0.72390   0.03237 
H          H       0.19367   0.61826   0.04147 
H          H       0.29950   0.71465   0.06066 
H          H       0.48552   0.69442  -0.00750 
H          H       0.46872   0.58592   0.02426 
H          H       0.57690   0.67739  -0.00176 
H          H       0.14598   0.67470   0.02330 
H          H       0.22027   0.59090   0.13560 
H          H       0.24944   0.55473   0.11842 
H          H       0.34791   0.64909  -0.05585 
H          H       0.31945   0.68450  -0.04004 
H          H       0.43213   0.65423  -0.20030 
H          H       0.36554   0.62324  -0.21781 
H          H       0.35746   0.56385   0.22596 
H          H       0.42341   0.58806   0.21973 
H          H       0.25132   0.53922  -0.15398 
H          H       0.21106   0.47450  -0.18038 
H          H       0.29244   0.45572   0.04905 
H          H       0.33202   0.51947   0.07441 
H          H       0.17366   0.42435  -0.06424 
H          H       0.15403   0.31544  -0.03979 
H          H       0.26338   0.40398  -0.06481 
H          H       0.11258   0.37723  -0.05568 
H          H       0.05262   0.35257  -0.03136 
H          H      -0.01229   0.32124  -0.01563 
H          H       0.05145   0.25039  -0.02335 
H          H       0.08857   0.64948  -0.02217 
H          H       0.02353   0.61784  -0.03539 
H          H       0.02136   0.51583   0.05926 
H          H       0.08697   0.54842   0.06720 
H          H       0.98649   0.21797  -0.00745 
H          H       0.97012   0.59209   0.04877 
H          H       0.90462   0.55998   0.04279 
H          H       0.90287   0.45852  -0.03502 
H          H       0.96822   0.48991  -0.03465 
H          H       0.93298   0.29421  -0.00742 
H          H       0.86778   0.26117  -0.00154 
H          H       0.86789   0.15959   0.00944 
H          H       0.93256   0.19141   0.00403 
H          H       0.84308   0.43330  -0.00919 
H          H       0.80905   0.13429   0.01158 
C          C       3.53811   0.60294   0.01392 
C          C       3.22199   0.32970  -0.04411 
C          C       3.27283   0.31809  -0.02995 
C          C       3.59010   0.59352   0.01615 
C          C       3.25349   0.27999  -0.04467 
C          C       3.27058   0.25979  -0.03646 
C          C       3.30896   0.27655  -0.01456 
C          C       3.32819   0.31518   0.00155 
C          C       3.31055   0.33481  -0.00647 
C          C       3.57222   0.55664  -0.02937 
C          C       3.58973   0.53684  -0.02964 
C          C       3.62707   0.55283   0.01557 
C          C       3.64496   0.59031   0.06059 
C          C       3.62688   0.60957   0.06054 
C          C       3.32737   0.25583  -0.01243 
C          C       3.64552   0.53220   0.01570 
C          C       3.31034   0.21932   0.04645 
C          C       3.32844   0.20006   0.04912 
C          C       3.36441   0.21510  -0.00644 
C          C       3.38135   0.25091  -0.06667 
C          C       3.36381   0.27068  -0.06981 
C          C       3.62685   0.49417   0.05002 
C          C       3.64464   0.47466   0.04901 
C          C       3.68189   0.49094   0.01422 
C          C       3.70063   0.52841  -0.02027 
C          C       3.68338   0.54849  -0.01947 
C          C       3.41645   0.20570  -0.01640 
C          C       3.43003   0.18036  -0.00987 
C          C       3.73290   0.47964   0.00959 
C          C       3.74466   0.45285   0.00575 
C          C       3.40780   0.14261   0.00102 
C          C       3.42106   0.11842   0.01027 
C          C       3.45857   0.13333   0.00809 
C          C       3.48302   0.17128  -0.00500 
C          C       3.46723   0.19381  -0.01412 
C          C       3.72108   0.41551   0.00279 
C          C       3.73351   0.39010  -0.00301 
C          C       3.77180   0.40481  -0.00474 
C          C       3.79658   0.44186  -0.00105 
C          C       3.78197   0.46496   0.00417 
C          C       3.39500   0.07972   0.02124 
C          C       3.52193   0.18654  -0.00692 
C          C       3.70878   0.35140  -0.00711 
C          C       3.53949   0.17008   0.07615 
C          C       3.57684   0.18560   0.07891 
C          C       3.59968   0.21859  -0.00209 
C          C       3.58279   0.23513  -0.08586 
C          C       3.54550   0.21975  -0.08865 
C          C       3.67438   0.33442   0.07351 
C          C       3.65192   0.29710   0.07606 
C          C       3.66164   0.27378  -0.00357 
C          C       3.69510   0.29013  -0.08706 
C          C       3.71774   0.32733  -0.08907 
C          C       3.65510   0.21220   0.00157 
C          C       3.63950   0.17871  -0.08163 
C          C       3.65581   0.15758  -0.08156 
C          C       3.68921   0.16836   0.00172 
C          C       3.70448   0.20229   0.08522 
C          C       3.68793   0.22316   0.08551 
C          C       3.70620   0.14632   0.00345 
C          C       3.68506   0.10781   0.00104 
C          C       3.70024   0.08556   0.00297 
C          C       3.73821   0.10275   0.00632 
C          C       3.76121   0.14052   0.00816 
C          C       3.74461   0.16162   0.00792 
C          C       3.67624   0.04637   0.00098 
C          C       3.38479   0.01796   0.02969 
C          C       3.66955  -0.01392   0.00360 
C          C       3.34765  -0.00125  -0.01146 
C          C       3.32802  -0.03861  -0.01083 
C          C       3.34447  -0.05976   0.03041 
C          C       3.38206  -0.03990   0.07304 
C          C       3.40115  -0.00259   0.07188 
C          C       3.63237  -0.03394  -0.03571 
C          C       3.61363  -0.07126  -0.03664 
C          C       3.63095  -0.09172   0.00168 
C          C       3.66880  -0.07111   0.03872 
C          C       3.68701  -0.03375   0.03987 
C          C       3.32456  -0.09890   0.02767 
C          C       3.61111  -0.13088   0.00387 
C          C       3.28653  -0.11931   0.06121 
C          C       3.26818  -0.15665   0.06321 
C          C       3.28568  -0.17665   0.03189 
C          C       3.32305  -0.15685  -0.00420 
C          C       3.34193  -0.11952  -0.00662 
C          C       3.57325  -0.15083   0.04151 
C          C       3.55423  -0.18815   0.03994 
C          C       3.57093  -0.20859   0.00205 
C          C       3.60830  -0.18930  -0.03437 
C          C       3.62787  -0.15194  -0.03327 
C          C       3.27870  -0.23687   0.04751 
C          C       3.25463  -0.27604   0.04625 
C          C       3.56072  -0.27042  -0.00815 
C          C       3.53453  -0.30913  -0.00319 
C          C       3.21672  -0.29329   0.03839 
C          C       3.19396  -0.33109   0.03829 
C          C       3.21068  -0.35206   0.04512 
C          C       3.24900  -0.33669   0.05055 
C          C       3.26982  -0.29826   0.05336 
C          C       3.49709  -0.32359  -0.00253 
C          C       3.47229  -0.36167   0.00876 
C          C       3.48770  -0.38471   0.01660 
C          C       3.52485  -0.37147   0.01024 
C          C       3.54738  -0.33370   0.00114 
C          C       3.43384  -0.37641   0.01003 
C          C       3.26642  -0.35857   0.04676 
C          C       3.15485  -0.34552   0.03024 
C          C       3.24836  -0.39591   0.09026 
C          C       3.26487  -0.41678   0.07751 
C          C       3.30063  -0.40259   0.01807 
C          C       3.31939  -0.36511  -0.01641 
C          C       3.30307  -0.34414  -0.00376 
C          C       3.41567  -0.36636  -0.10822 
C          C       3.37821  -0.38358  -0.11639 
C          C       3.35601  -0.40895   0.00290 
C          C       3.37361  -0.41754   0.12636 
C          C       3.41079  -0.40333   0.12572 
C          C       3.29449  -0.46424  -0.02638 
C          C       3.26034  -0.47905  -0.10392 
C          C       3.23761  -0.51606  -0.12202 
C          C       3.24715  -0.54176  -0.06484 
C          C       3.28272  -0.52643   0.00172 
C          C       3.30526  -0.48940   0.01994 
C          C       3.22198  -0.58051  -0.06599 
C          C       3.18379  -0.59487  -0.06357 
C          C       3.15888  -0.63180  -0.05398 
C          C       3.17311  -0.65524  -0.04812 
C          C       3.21034  -0.64342  -0.05130 
C          C       3.23403  -0.60618  -0.06125 
C          C       3.12016  -0.64397  -0.04955 
C          C       3.09363  -0.39826   0.02436 
C          C       3.05787  -0.69578  -0.02911 
C          C       3.03823  -0.67722  -0.02632 
C          C       3.00087  -0.69534  -0.01698 
C          C       2.97976  -0.73397  -0.01003 
C          C       3.00012  -0.75228  -0.01239 
C          C       3.03741  -0.73383  -0.02173 
C          C       3.07412  -0.38006  -0.00401 
C          C       3.03679  -0.39821  -0.01094 
C          C       3.01551  -0.43655   0.01123 
C          C       3.03563  -0.45467   0.03901 
C          C       3.07299  -0.43612   0.04494 
C          C       2.94013  -0.75353  -0.00279 
C          C       2.97605  -0.45569   0.00751 
C          C       2.95591  -0.43739   0.02805 
C          C       2.91854  -0.45571   0.02598 
C          C       2.89786  -0.49353   0.00420 
C          C       2.91740  -0.51194  -0.01672 
C          C       2.95480  -0.49400  -0.01567 
C          C       2.91948  -0.73554  -0.00326 
C          C       2.88209  -0.75435  -0.00011 
C          C       2.86183  -0.79247   0.00444 
C          C       2.88187  -0.81063   0.00596 
C          C       2.91925  -0.79216   0.00296 
C          C       2.83544  -0.54556  -0.00277 
C          C       2.80036  -0.84531   0.00974 
C          C       0.53887   3.11086   0.51418 
C          C       0.22292   2.83647   0.48701 
C          C       0.27402   2.82525   0.48385 
C          C       0.59113   3.10176   0.49877 
C          C       0.25521   2.78756   0.51293 
C          C       0.27252   2.76753   0.50994 
C          C       0.31049   2.78398   0.47743 
C          C       0.32919   2.82219   0.44814 
C          C       0.31141   2.84172   0.45182 
C          C       0.57408   3.06540   0.55189 
C          C       0.59162   3.04564   0.54974 
C          C       0.62823   3.06105   0.49374 
C          C       0.64544   3.09813   0.44247 
C          C       0.62732   3.11736   0.44501 
C          C       0.32898   2.76326   0.47455 
C          C       0.64648   3.04023   0.48887 
C          C       0.31056   2.72541   0.43692 
C          C       0.32853   2.70605   0.43346 
C          C       0.36586   2.72235   0.46714 
C          C       0.38428   2.75961   0.50592 
C          C       0.36682   2.77946   0.50943 
C          C       0.62731   3.00195   0.45987 
C          C       0.64491   2.98223   0.45830 
C          C       0.68250   2.99853   0.48499 
C          C       0.70174   3.03626   0.51327 
C          C       0.68471   3.05654   0.51464 
C          C       0.41784   2.71292   0.45523 
C          C       0.43150   2.68772   0.46885 
C          C       0.73350   2.98728   0.48746 
C          C       0.74560   2.96073   0.48995 
C          C       0.40934   2.65003   0.48431 
C          C       0.42263   2.62599   0.50265 
C          C       0.46015   2.64091   0.50050 
C          C       0.48454   2.67889   0.48520 
C          C       0.46874   2.70130   0.46845 
C          C       0.72221   2.92337   0.49081 
C          C       0.73491   2.89817   0.49597 
C          C       0.77322   2.91303   0.49876 
C          C       0.79777   2.95011   0.49633 
C          C       0.78296   2.97306   0.49220 
C          C       0.39689   2.58748   0.52558 
C          C       0.52331   2.69428   0.49153 
C          C       0.71038   2.85953   0.49899 
C          C       0.54120   2.67672   0.42132 
C          C       0.57859   2.69263   0.42065 
C          C       0.60109   2.72676   0.49355 
C          C       0.58382   2.74415   0.56654 
C          C       0.54650   2.72866   0.56566 
C          C       0.67649   2.84257   0.41408 
C          C       0.65393   2.80529   0.41227 
C          C       0.66308   2.78207   0.49670 
C          C       0.69607   2.79841   0.58402 
C          C       0.71888   2.83556   0.58517 
C          C       0.65670   2.72067   0.49676 
C          C       0.64103   2.68751   0.58251 
C          C       0.65719   2.66626   0.58535 
C          C       0.69060   2.67665   0.50312 
C          C       0.70616   2.71044   0.41810 
C          C       0.68967   2.73137   0.41440 
C          C       0.70702   2.65408   0.50255 
C          C       0.68537   2.61558   0.50551 
C          C       0.69999   2.59282   0.50111 
C          C       0.73792   2.60952   0.49547 
C          C       0.76137   2.64722   0.49450 
C          C       0.74533   2.66882   0.49699 
C          C       0.67559   2.55364   0.50286 
C          C       0.38732   2.52596   0.54153 
C          C       0.66844   2.49299   0.49273 
C          C       0.35098   2.50702   0.59523 
C          C       0.33157   2.46966   0.60179 
C          C       0.34734   2.44823   0.55451 
C          C       0.38431   2.46789   0.50201 
C          C       0.40320   2.50517   0.49623 
C          C       0.63119   2.47273   0.53051 
C          C       0.61247   2.43540   0.52783 
C          C       0.62981   2.41512   0.48626 
C          C       0.66774   2.43593   0.45111 
C          C       0.68595   2.47329   0.45413 
C          C       0.32722   2.40901   0.55501 
C          C       0.60991   2.37597   0.47912 
C          C       0.28880   2.38870   0.53213 
C          C       0.27056   2.35141   0.52094 
C          C       0.28850   2.33129   0.53364 
C          C       0.32626   2.35100   0.55989 
C          C       0.34500   2.38824   0.57094 
C          C       0.57200   2.35625   0.44222 
C          C       0.55281   2.31892   0.44134 
C          C       0.56940   2.29820   0.47545 
C          C       0.60685   2.31727   0.51055 
C          C       0.62658   2.35462   0.51172 
C          C       0.28125   2.27072   0.51851 
C          C       0.25683   2.23164   0.51156 
C          C       0.55950   2.23658   0.48090 
C          C       0.53370   2.19783   0.48989 
C          C       0.21889   2.21488   0.50640 
C          C       0.19557   2.17719   0.49982 
C          C       0.21172   2.15569   0.49722 
C          C       0.25003   2.17055   0.50310 
C          C       0.27158   2.20899   0.51017 
C          C       0.49616   2.18280   0.49033 
C          C       0.47184   2.14482   0.50189 
C          C       0.48774   2.12236   0.50983 
C          C       0.52502   2.13598   0.50780 
C          C       0.54712   2.17377   0.49917 
C          C       0.43294   2.12956   0.50517 
C          C       0.26655   2.14810   0.50254 
C          C       0.15653   2.16324   0.49654 
C          C       0.25117   2.11455   0.41582 
C          C       0.26736   2.09334   0.41425 
C          C       0.29992   2.10369   0.49947 
C          C       0.31560   2.13681   0.58555 
C          C       0.29962   2.15821   0.58727 
C          C       0.41526   2.14604   0.42342 
C          C       0.37788   2.13038   0.42130 
C          C       0.35520   2.09728   0.50171 
C          C       0.37222   2.08081   0.58485 
C          C       0.40955   2.09635   0.58729 
C          C       0.29325   2.04207   0.50222 
C          C       0.25964   2.02559   0.58454 
C          C       0.23715   1.98839   0.58615 
C          C       0.24637   1.96452   0.50389 
C          C       0.28078   1.98163   0.42357 
C          C       0.30318   2.01893   0.42245 
C          C       0.22188   1.92584   0.49893 
C          C       0.18360   1.91107   0.49984 
C          C       0.15901   1.87402   0.49707 
C          C       0.17367   1.85095   0.49294 
C          C       0.21101   1.86318   0.49092 
C          C       0.23446   1.90054   0.49334 
C          C       0.12021   1.86153   0.49828 
C          C       0.09508   2.11064   0.49401 
C          C       0.05799   1.80953   0.49723 
C          C       0.03840   1.82796   0.47929 
C          C       0.00100   1.80983   0.47891 
C          C      -0.02012   1.77138   0.49723 
C          C       0.00014   1.75316   0.51589 
C          C       0.03750   1.77164   0.51502 
C          C       0.07533   2.12907   0.48877 
C          C       0.03796   2.11086   0.48811 
C          C       0.01682   2.07225   0.49325 
C          C       0.03723   2.05399   0.49817 
C          C       0.07461   2.07254   0.49843 
C          C      -0.05964   1.75195   0.49633 
C          C      -0.02282   2.05288   0.49391 
C          C      -0.04308   2.07128   0.49798 
C          C      -0.08045   2.05287   0.49844 
C          C      -0.10108   2.01478   0.49534 
C          C      -0.08148   1.99618   0.49155 
C          C      -0.04408   2.01425   0.49067 
C          C      -0.08007   1.76996   0.51598 
C          C      -0.11744   1.75131   0.51512 
C          C      -0.13783   1.71342   0.49570 
C          C      -0.11800   1.69527   0.47617 
C          C      -0.08062   1.71355   0.47582 
C          C      -0.16338   1.96273   0.49812 
C          C      -0.19956   1.66092   0.49122 
N          N       3.25632   0.33986  -0.03819 
N          N       3.57276   0.61450   0.01735 
N          N       3.38192   0.19424  -0.00171 
N          N       3.69854   0.46931   0.01414 
N          N       3.63866   0.23479  -0.00014 
N          N       3.40604   0.05627   0.02804 
N          N       3.68931   0.02451   0.00677 
N          N       3.26569  -0.21504   0.03666 
N          N       3.54982  -0.24689   0.00143 
N          N       3.31697  -0.42532  -0.00121 
N          N       3.13212  -0.38033   0.03212 
N          N       3.09627  -0.67836  -0.03800 
N          N       2.82328  -0.81054   0.00691 
N          N       2.85934  -0.51104   0.00399 
N          N       0.25731   2.84686   0.48578 
N          N       0.57344   3.12249   0.49841 
N          N       0.38320   2.70133   0.46392 
N          N       0.69909   2.97680   0.48342 
N          N       0.64010   2.74311   0.49441 
N          N       0.40816   2.56419   0.53007 
N          N       0.68824   2.53146   0.49285 
N          N       0.26859   2.29294   0.52141 
N          N       0.54823   2.25988   0.47533 
N          N       0.31623   2.08102   0.49988 
N          N       0.13357   2.12849   0.49497 
N          N       0.09645   1.82702   0.49749 
N          N      -0.17636   1.69560   0.49609 
N          N      -0.13958   1.99727   0.49577 
