data_NUS-15
_audit_creation_date              0000-00-00
_audit_creation_method            'LanYouShi'
_symmetry_space_group_name_H-M    'P1'
_cell_length_a                    37.5149002
_cell_length_b                    37.5149002
_cell_length_c                    3.5355000
_cell_angle_alpha                 90.0000000
_cell_angle_beta                  90.0000000
_cell_angle_gamma                 120.0000000
loop_
_atom_site_label
_atom_site_type_symbol
_atom_site_fract_x
_atom_site_fract_y
_atom_site_fract_z
_atom_site_U_iso_or_equiv
_atom_site_adp_type
_atom_site_occupancy
        N1          N  0.4597558  0.5451930  0.4999965    0.00000       Uiso       1.00
        N2          N  0.4548067  0.9145625  0.4999965    0.00000       Uiso       1.00
        N3          N  0.0854373  0.5402440  0.4999965    0.00000       Uiso       1.00
        N4          N  0.5402439  0.4548067  0.4999965    0.00000       Uiso       1.00
        N5          N  0.5451931  0.0854372  0.4999965    0.00000       Uiso       1.00
        N6          N  0.9145625  0.4597558  0.4999965    0.00000       Uiso       1.00
        C1          C  0.4729261  0.5860078  0.4999965    0.00000       Uiso       1.00
        C2          C  0.4139919  0.8869179  0.4999965    0.00000       Uiso       1.00
        C3          C  0.1130818  0.5270737  0.4999965    0.00000       Uiso       1.00
        C4          C  0.5270737  0.4139919  0.4999965    0.00000       Uiso       1.00
        C5          C  0.5860078  0.1130818  0.4999965    0.00000       Uiso       1.00
        C6          C  0.8869180  0.4729261  0.4999965    0.00000       Uiso       1.00
        C7          C  0.4807818  0.5245436  0.4999965    0.00000       Uiso       1.00
        C8          C  0.4754562  0.9562380  0.4999965    0.00000       Uiso       1.00
        C9          C  0.0437617  0.5192180  0.4999965    0.00000       Uiso       1.00
       C10          C  0.5192179  0.4754562  0.4999965    0.00000       Uiso       1.00
       C11          C  0.5245435  0.0437617  0.4999965    0.00000       Uiso       1.00
       C12          C  0.9562380  0.4807819  0.4999965    0.00000       Uiso       1.00
       C13          C  0.5241484  0.5431359  0.4999965    0.00000       Uiso       1.00
       C14          C  0.4568639  0.9810123  0.4999965    0.00000       Uiso       1.00
       C15          C  0.0189875  0.4758513  0.4999965    0.00000       Uiso       1.00
       C16          C  0.4758513  0.4568639  0.4999965    0.00000       Uiso       1.00
       C17          C  0.5431359  0.0189875  0.4999965    0.00000       Uiso       1.00
       C18          C  0.9810123  0.5241485  0.4999965    0.00000       Uiso       1.00
       C19          C  0.5430176  0.5187500  0.4999965    0.00000       Uiso       1.00
       C20          C  0.4812497  0.0242676  0.4999965    0.00000       Uiso       1.00
       C21          C  0.9757322  0.4569822  0.4999965    0.00000       Uiso       1.00
       C22          C  0.4569822  0.4812497  0.4999965    0.00000       Uiso       1.00
       C23          C  0.5187500  0.9757321  0.4999965    0.00000       Uiso       1.00
       C24          C  0.0242676  0.5430176  0.4999965    0.00000       Uiso       1.00
        H1          H  0.5037999  0.6066344  0.4999965    0.00000       Uiso       1.00
        H2          H  0.3933654  0.8971652  0.4999965    0.00000       Uiso       1.00
        H3          H  0.1028345  0.4961999  0.4999965    0.00000       Uiso       1.00
        H4          H  0.4961999  0.3933654  0.4999965    0.00000       Uiso       1.00
        H5          H  0.6066344  0.1028346  0.4999965    0.00000       Uiso       1.00
        H6          H  0.8971652  0.5037998  0.4999965    0.00000       Uiso       1.00
        H7          H  0.5423527  0.5743641  0.4999965    0.00000       Uiso       1.00
        H8          H  0.4256357  0.9679884  0.4999965    0.00000       Uiso       1.00
        H9          H  0.0320113  0.4576471  0.4999965    0.00000       Uiso       1.00
       H10          H  0.4576471  0.4256357  0.4999965    0.00000       Uiso       1.00
       H11          H  0.5743640  0.0320113  0.4999965    0.00000       Uiso       1.00
       H12          H  0.9679884  0.5423527  0.4999965    0.00000       Uiso       1.00
       H13          H  0.4255752  0.4672869  0.4999965    0.00000       Uiso       1.00
       H14          H  0.5327129  0.9582881  0.4999965    0.00000       Uiso       1.00
       H15          H  0.0417117  0.5744246  0.4999965    0.00000       Uiso       1.00
       H16          H  0.5744246  0.5327129  0.4999965    0.00000       Uiso       1.00
       H17          H  0.4672868  0.0417117  0.4999965    0.00000       Uiso       1.00
       H18          H  0.9582881  0.4255752  0.4999965    0.00000       Uiso       1.00
       C25          C  0.3496896  0.7110360  0.4999965    0.00000       Uiso       1.00
       C26          C  0.2889637  0.6386533  0.4999965    0.00000       Uiso       1.00
       C27          C  0.3613465  0.6503101  0.4999965    0.00000       Uiso       1.00
       C28          C  0.6503102  0.2889637  0.4999965    0.00000       Uiso       1.00
       C29          C  0.7110361  0.3613465  0.4999965    0.00000       Uiso       1.00
       C30          C  0.6386533  0.3496896  0.4999965    0.00000       Uiso       1.00
       C31          C  0.3069366  0.6820829  0.4999965    0.00000       Uiso       1.00
       C32          C  0.3179168  0.6248534  0.4999965    0.00000       Uiso       1.00
       C33          C  0.3751463  0.6930632  0.4999965    0.00000       Uiso       1.00
       C34          C  0.6930631  0.3179168  0.4999965    0.00000       Uiso       1.00
       C35          C  0.6820829  0.3751463  0.4999965    0.00000       Uiso       1.00
       C36          C  0.6248534  0.3069366  0.4999965    0.00000       Uiso       1.00
       C37          C  0.3659797  0.7551523  0.4999965    0.00000       Uiso       1.00
       C38          C  0.2448475  0.6108271  0.4999965    0.00000       Uiso       1.00
       C39          C  0.3891726  0.6340201  0.4999965    0.00000       Uiso       1.00
       C40          C  0.6340201  0.2448475  0.4999965    0.00000       Uiso       1.00
       C41          C  0.7551523  0.3891726  0.4999965    0.00000       Uiso       1.00
       C42          C  0.6108271  0.3659797  0.4999965    0.00000       Uiso       1.00
       C43          C  0.3753914  0.5909417  0.4999965    0.00000       Uiso       1.00
       C44          C  0.4090581  0.7844494  0.4999965    0.00000       Uiso       1.00
       C45          C  0.2155503  0.6246084  0.4999965    0.00000       Uiso       1.00
       C46          C  0.6246084  0.4090580  0.4999965    0.00000       Uiso       1.00
       C47          C  0.5909417  0.2155503  0.4999965    0.00000       Uiso       1.00
       C48          C  0.7844495  0.3753914  0.4999965    0.00000       Uiso       1.00
       C49          C  0.4022473  0.5749252  0.4999965    0.00000       Uiso       1.00
       C50          C  0.4250745  0.8273218  0.4999965    0.00000       Uiso       1.00
       C51          C  0.1726779  0.5977525  0.4999965    0.00000       Uiso       1.00
       C52          C  0.5977525  0.4250745  0.4999965    0.00000       Uiso       1.00
       C53          C  0.5749252  0.1726779  0.4999965    0.00000       Uiso       1.00
       C54          C  0.8273219  0.4022473  0.4999965    0.00000       Uiso       1.00
       C55          C  0.4452654  0.6011334  0.4999965    0.00000       Uiso       1.00
       C56          C  0.3988664  0.8441318  0.4999965    0.00000       Uiso       1.00
       C57          C  0.1558680  0.5547344  0.4999965    0.00000       Uiso       1.00
       C58          C  0.5547343  0.3988664  0.4999965    0.00000       Uiso       1.00
       C59          C  0.6011333  0.1558680  0.4999965    0.00000       Uiso       1.00
       C60          C  0.8441318  0.4452654  0.4999965    0.00000       Uiso       1.00
       C61          C  0.4601446  0.6438345  0.4999965    0.00000       Uiso       1.00
       C62          C  0.3561652  0.8163098  0.4999965    0.00000       Uiso       1.00
       C63          C  0.1836899  0.5398551  0.4999965    0.00000       Uiso       1.00
       C64          C  0.5398551  0.3561652  0.4999965    0.00000       Uiso       1.00
       C65          C  0.6438345  0.1836899  0.4999965    0.00000       Uiso       1.00
       C66          C  0.8163099  0.4601446  0.4999965    0.00000       Uiso       1.00
       C67          C  0.4329833  0.6594834  0.4999965    0.00000       Uiso       1.00
       C68          C  0.3405163  0.7734997  0.4999965    0.00000       Uiso       1.00
       C69          C  0.2265001  0.5670164  0.4999965    0.00000       Uiso       1.00
       C70          C  0.5670164  0.3405163  0.4999965    0.00000       Uiso       1.00
       C71          C  0.6594834  0.2265001  0.4999965    0.00000       Uiso       1.00
       C72          C  0.7734997  0.4329833  0.4999965    0.00000       Uiso       1.00
       H19          H  0.3450532  0.5692894  0.4999965    0.00000       Uiso       1.00
       H20          H  0.4307104  0.7757636  0.4999965    0.00000       Uiso       1.00
       H21          H  0.2242362  0.6549466  0.4999965    0.00000       Uiso       1.00
       H22          H  0.6549466  0.4307104  0.4999965    0.00000       Uiso       1.00
       H23          H  0.5692893  0.2242362  0.4999965    0.00000       Uiso       1.00
       H24          H  0.7757636  0.3450532  0.4999965    0.00000       Uiso       1.00
       H25          H  0.3900105  0.5436588  0.4999965    0.00000       Uiso       1.00
       H26          H  0.4563409  0.8463514  0.4999965    0.00000       Uiso       1.00
       H27          H  0.1536483  0.6099892  0.4999965    0.00000       Uiso       1.00
       H28          H  0.6099892  0.4563409  0.4999965    0.00000       Uiso       1.00
       H29          H  0.5436588  0.1536483  0.4999965    0.00000       Uiso       1.00
       H30          H  0.8463514  0.3900105  0.4999965    0.00000       Uiso       1.00
       H31          H  0.4911706  0.6641774  0.4999965    0.00000       Uiso       1.00
       H32          H  0.3358224  0.8269930  0.4999965    0.00000       Uiso       1.00
       H33          H  0.1730068  0.5088291  0.4999965    0.00000       Uiso       1.00
       H34          H  0.5088291  0.3358223  0.4999965    0.00000       Uiso       1.00
       H35          H  0.6641774  0.1730067  0.4999965    0.00000       Uiso       1.00
       H36          H  0.8269930  0.4911706  0.4999965    0.00000       Uiso       1.00
       H37          H  0.4470792  0.6906899  0.4999965    0.00000       Uiso       1.00
       H38          H  0.3093098  0.7563890  0.4999965    0.00000       Uiso       1.00
       H39          H  0.2436107  0.5529205  0.4999965    0.00000       Uiso       1.00
       H40          H  0.5529205  0.3093098  0.4999965    0.00000       Uiso       1.00
       H41          H  0.6906899  0.2436107  0.4999965    0.00000       Uiso       1.00
       H42          H  0.7563891  0.4470792  0.4999965    0.00000       Uiso       1.00
       H43          H  0.2877503  0.6933475  0.4999965    0.00000       Uiso       1.00
       H44          H  0.3066522  0.5944026  0.4999965    0.00000       Uiso       1.00
       H45          H  0.4055972  0.7122495  0.4999965    0.00000       Uiso       1.00
       H46          H  0.7122495  0.3066522  0.4999965    0.00000       Uiso       1.00
       H47          H  0.6933475  0.4055972  0.4999965    0.00000       Uiso       1.00
       H48          H  0.5944025  0.2877503  0.4999965    0.00000       Uiso       1.00
