data_crystal
 
_cell_length_a    10.57000
_cell_length_b    10.49000
_cell_length_c    6.79720
_cell_angle_alpha 90.04520
_cell_angle_beta  89.23800
_cell_angle_gamma 120.56650
 
_symmetry_space_group_name_Hall 'P 1'
_symmetry_space_group_name_H-M  'P 1'
 
loop_
_symmetry_equiv_pos_as_xyz
 'x,y,z' 
 
loop_
_atom_site_label
_atom_site_type_symbol
_atom_site_fract_x
_atom_site_fract_y
_atom_site_fract_z
O          O       0.14081   0.35298   0.24302 
C          C       0.24529   0.48719   0.24171 
C          C       0.40054   0.52653   0.23619 
O          O       0.65508   0.71230   0.22984 
C          C       0.52230   0.68241   0.23464 
C          C       0.48485   0.79995   0.23881 
C          C       0.59448   0.94796   0.23761 
C          C       0.33064   0.76566   0.24441 
O          O       0.30233   0.86998   0.24790 
C          C       0.21287   0.60880   0.24576 
C          C       0.06637   0.57017   0.25094 
N          N       0.55012   0.43360   0.22540 
N          N       0.70226   0.20131   0.23148 
N          N       0.80622   0.45637   0.23566 
C          C       0.42999   0.41298   0.23325 
N          N       0.57476   0.06454   0.23811 
N          N       0.55683   0.30540   0.22066 
C          C       0.68912   0.31967   0.22386 
N          N       0.94514   0.47740   0.22806 
H          H       0.03608   0.65994   0.26076 
H          H       0.81299   0.21373   0.23239 
H          H       0.45410   0.19595   0.21443 
H          H       0.96077   0.38070   0.21707 
H          H       0.64551   0.54841   0.22245 
H          H       0.33583   0.29310   0.23852 
H          H       0.71490   0.97970   0.23491 
H          H       0.46626   1.05818   0.24553 
H          H       0.79156   0.55268   0.25465 
I          I       0.90376   0.74321   0.64221 
O          O       0.14081   0.35298   0.74301 
C          C       0.24529   0.48719   0.74171 
C          C       0.40054   0.52653   0.73618 
O          O       0.65508   0.71230   0.72984 
C          C       0.52230   0.68241   0.73464 
C          C       0.48485   0.79995   0.73881 
C          C       0.59448   0.94796   0.73761 
C          C       0.33064   0.76566   0.74442 
O          O       0.30233   0.86998   0.74790 
C          C       0.21287   0.60880   0.74576 
C          C       0.06637   0.57017   0.75094 
N          N       0.55012   0.43360   0.72540 
N          N       0.70226   0.20131   0.73148 
N          N       0.80622   0.45637   0.73566 
C          C       0.42999   0.41298   0.73325 
N          N       0.57476   0.06454   0.73811 
N          N       0.55683   0.30540   0.72066 
C          C       0.68912   0.31967   0.72386 
N          N       0.94514   0.47740   0.72806 
H          H       0.03608   0.65994   0.76076 
H          H       0.81299   0.21373   0.73240 
H          H       0.45410   0.19595   0.71442 
H          H       0.96077   0.38070   0.71707 
H          H       0.64551   0.54841   0.72245 
H          H       0.33583   0.29310   0.73852 
H          H       0.71490   0.97970   0.73491 
H          H       0.46626   1.05818   0.74553 
H          H       0.79156   0.55268   0.75465 
I          I       0.90376   0.74321   1.14221 
