data_crystal
 
_cell_length_a    37.53870
_cell_length_b    37.53870
_cell_length_c    9.20000
_cell_angle_alpha 90.00000
_cell_angle_beta  90.00000
_cell_angle_gamma 120.00000
 
_symmetry_space_group_name_Hall 'P 1'
_symmetry_space_group_name_H-M  'P 1'
 
loop_
_symmetry_equiv_pos_as_xyz
 'x,y,z' 
 
loop_
_atom_site_label
_atom_site_type_symbol
_atom_site_fract_x
_atom_site_fract_y
_atom_site_fract_z
_atom_site_charge
C          C       0.48119   0.48264   0.25177   0.0000000000
C          C       0.44323   0.48398   0.25962   0.0000000000
C          C       0.41075   0.45921   0.16540   0.0000000000
C          C       0.37491   0.46025   0.17092   0.0000000000
C          C       0.37047   0.48528   0.27557   0.0000000000
C          C       0.40275   0.50970   0.37099   0.0000000000
C          C       0.43856   0.50869   0.36290   0.0000000000
H          H       0.46452   0.52740   0.43557   0.0000000000
C          C       0.47416   0.44090   0.24651   0.0000000000
C          C       0.43946   0.40955   0.31735   0.0000000000
C          C       0.42982   0.36929   0.30813   0.0000000000
C          C       0.45556   0.35952   0.22927   0.0000000000
C          C       0.49039   0.39044   0.15875   0.0000000000
C          C       0.49937   0.43040   0.16720   0.0000000000
N          N       0.33580   0.48817   0.28198   0.0000000000
C          C       0.30116   0.45788   0.24331   0.0000000000
C          C       0.26637   0.46321   0.22746   0.0000000000
C          C       0.22813   0.42995   0.19206   0.0000000000
C          C       0.27128   0.50193   0.25396   0.0000000000
N          N       0.44722   0.31976   0.22460   0.0000000000
C          C       0.47738   0.31362   0.24383   0.0000000000
C          C       0.47299   0.27394   0.22671   0.0000000000
C          C       0.50681   0.26916   0.25407   0.0000000000
C          C       0.43487   0.24045   0.19117   0.0000000000
H          H       0.41499   0.44006   0.08400   0.0000000000
H          H       0.35046   0.44322   0.09026   0.0000000000
H          H       0.39817   0.52852   0.45267   0.0000000000
H          H       0.41990   0.41757   0.38216   0.0000000000
H          H       0.40328   0.34503   0.36593   0.0000000000
H          H       0.50941   0.38198   0.09256   0.0000000000
H          H       0.52673   0.45440   0.11283   0.0000000000
H          H       0.29666   0.42693   0.21995   0.0000000000
H          H       0.22558   0.40035   0.16681   0.0000000000
H          H       0.30208   0.52654   0.28134   0.0000000000
H          H       0.50803   0.33908   0.27690   0.0000000000
H          H       0.53630   0.29614   0.28131   0.0000000000
H          H       0.40993   0.24639   0.16647   0.0000000000
C          C       0.51736   0.99855   0.25177   0.0000000000
C          C       0.51602   0.95925   0.25962   0.0000000000
C          C       0.54079   0.95154   0.16540   0.0000000000
C          C       0.53975   0.91466   0.17092   0.0000000000
C          C       0.51472   0.88519   0.27557   0.0000000000
C          C       0.49030   0.89305   0.37099   0.0000000000
C          C       0.49131   0.92987   0.36290   0.0000000000
H          H       0.47260   0.93712   0.43557   0.0000000000
C          C       0.55910   0.03326   0.24651   0.0000000000
C          C       0.59045   0.02991   0.31735   0.0000000000
C          C       0.63071   0.06053   0.30813   0.0000000000
C          C       0.64048   0.09604   0.22927   0.0000000000
C          C       0.60956   0.09995   0.15875   0.0000000000
C          C       0.56960   0.06897   0.16720   0.0000000000
N          N       0.51183   0.84763   0.28198   0.0000000000
C          C       0.54212   0.84328   0.24331   0.0000000000
C          C       0.53679   0.80316   0.22746   0.0000000000
C          C       0.57005   0.79818   0.19206   0.0000000000
C          C       0.49807   0.76935   0.25396   0.0000000000
N          N       0.68024   0.12746   0.22460   0.0000000000
C          C       0.68638   0.16376   0.24383   0.0000000000
C          C       0.72606   0.19905   0.22671   0.0000000000
C          C       0.73084   0.23765   0.25407   0.0000000000
C          C       0.75955   0.19442   0.19117   0.0000000000
H          H       0.55994   0.97493   0.08400   0.0000000000
H          H       0.55678   0.90724   0.09026   0.0000000000
H          H       0.47148   0.86965   0.45267   0.0000000000
H          H       0.58243   0.00233   0.38216   0.0000000000
H          H       0.65497   0.05825   0.36593   0.0000000000
H          H       0.61802   0.12743   0.09256   0.0000000000
H          H       0.54560   0.07233   0.11283   0.0000000000
H          H       0.57307   0.86973   0.21995   0.0000000000
H          H       0.59965   0.82523   0.16681   0.0000000000
H          H       0.47346   0.77554   0.28134   0.0000000000
H          H       0.66092   0.16895   0.27690   0.0000000000
H          H       0.70386   0.24016   0.28131   0.0000000000
H          H       0.75361   0.16354   0.16647   0.0000000000
C          C       0.00145   0.51881   0.25177   0.0000000000
C          C       0.04075   0.55677   0.25962   0.0000000000
C          C       0.04846   0.58925   0.16540   0.0000000000
C          C       0.08534   0.62509   0.17092   0.0000000000
C          C       0.11481   0.62953   0.27557   0.0000000000
C          C       0.10695   0.59725   0.37099   0.0000000000
C          C       0.07013   0.56144   0.36290   0.0000000000
H          H       0.06288   0.53548   0.43557   0.0000000000
C          C       0.96674   0.52584   0.24651   0.0000000000
C          C       0.97009   0.56054   0.31735   0.0000000000
C          C       0.93947   0.57018   0.30813   0.0000000000
C          C       0.90396   0.54444   0.22927   0.0000000000
C          C       0.90005   0.50961   0.15875   0.0000000000
C          C       0.93103   0.50063   0.16720   0.0000000000
N          N       0.15237   0.66420   0.28198   0.0000000000
C          C       0.15672   0.69884   0.24331   0.0000000000
C          C       0.19684   0.73363   0.22746   0.0000000000
C          C       0.20182   0.77187   0.19206   0.0000000000
C          C       0.23065   0.72872   0.25396   0.0000000000
N          N       0.87254   0.55278   0.22460   0.0000000000
C          C       0.83624   0.52262   0.24383   0.0000000000
C          C       0.80095   0.52701   0.22671   0.0000000000
C          C       0.76235   0.49319   0.25407   0.0000000000
C          C       0.80558   0.56513   0.19117   0.0000000000
H          H       0.02507   0.58501   0.08400   0.0000000000
H          H       0.09276   0.64954   0.09026   0.0000000000
H          H       0.13035   0.60183   0.45267   0.0000000000
H          H       0.99767   0.58010   0.38216   0.0000000000
H          H       0.94175   0.59672   0.36593   0.0000000000
H          H       0.87257   0.49059   0.09256   0.0000000000
H          H       0.92767   0.47327   0.11283   0.0000000000
H          H       0.13027   0.70334   0.21995   0.0000000000
H          H       0.17477   0.77442   0.16681   0.0000000000
H          H       0.22446   0.69792   0.28134   0.0000000000
H          H       0.83105   0.49197   0.27690   0.0000000000
H          H       0.75984   0.46370   0.28131   0.0000000000
H          H       0.83646   0.59007   0.16647   0.0000000000
C          C       0.51881   0.51736   0.25177   0.0000000000
C          C       0.55677   0.51602   0.25962   0.0000000000
C          C       0.58925   0.54079   0.16540   0.0000000000
C          C       0.62509   0.53975   0.17092   0.0000000000
C          C       0.62953   0.51472   0.27557   0.0000000000
C          C       0.59725   0.49030   0.37099   0.0000000000
C          C       0.56144   0.49131   0.36290   0.0000000000
H          H       0.53548   0.47260   0.43557   0.0000000000
C          C       0.52584   0.55910   0.24651   0.0000000000
C          C       0.56054   0.59045   0.31735   0.0000000000
C          C       0.57018   0.63071   0.30813   0.0000000000
C          C       0.54444   0.64048   0.22927   0.0000000000
C          C       0.50961   0.60956   0.15875   0.0000000000
C          C       0.50063   0.56960   0.16720   0.0000000000
N          N       0.66420   0.51183   0.28198   0.0000000000
C          C       0.69884   0.54212   0.24331   0.0000000000
C          C       0.73363   0.53679   0.22746   0.0000000000
C          C       0.77187   0.57005   0.19206   0.0000000000
C          C       0.72872   0.49807   0.25396   0.0000000000
N          N       0.55278   0.68024   0.22460   0.0000000000
C          C       0.52262   0.68638   0.24383   0.0000000000
C          C       0.52701   0.72606   0.22671   0.0000000000
C          C       0.49319   0.73084   0.25407   0.0000000000
C          C       0.56513   0.75955   0.19117   0.0000000000
H          H       0.58501   0.55994   0.08400   0.0000000000
H          H       0.64954   0.55678   0.09026   0.0000000000
H          H       0.60183   0.47148   0.45267   0.0000000000
H          H       0.58010   0.58243   0.38216   0.0000000000
H          H       0.59672   0.65497   0.36593   0.0000000000
H          H       0.49059   0.61802   0.09256   0.0000000000
H          H       0.47327   0.54560   0.11283   0.0000000000
H          H       0.70334   0.57307   0.21995   0.0000000000
H          H       0.77442   0.59965   0.16681   0.0000000000
H          H       0.69792   0.47346   0.28134   0.0000000000
H          H       0.49197   0.66092   0.27690   0.0000000000
H          H       0.46370   0.70386   0.28131   0.0000000000
H          H       0.59007   0.75361   0.16647   0.0000000000
C          C       0.48264   0.00145   0.25177   0.0000000000
C          C       0.48398   0.04075   0.25962   0.0000000000
C          C       0.45921   0.04846   0.16540   0.0000000000
C          C       0.46025   0.08534   0.17092   0.0000000000
C          C       0.48528   0.11481   0.27557   0.0000000000
C          C       0.50970   0.10695   0.37099   0.0000000000
C          C       0.50869   0.07013   0.36290   0.0000000000
H          H       0.52740   0.06288   0.43557   0.0000000000
C          C       0.44090   0.96674   0.24651   0.0000000000
C          C       0.40955   0.97009   0.31735   0.0000000000
C          C       0.36929   0.93947   0.30813   0.0000000000
C          C       0.35952   0.90396   0.22927   0.0000000000
C          C       0.39044   0.90005   0.15875   0.0000000000
C          C       0.43040   0.93103   0.16720   0.0000000000
N          N       0.48817   0.15237   0.28198   0.0000000000
C          C       0.45788   0.15672   0.24331   0.0000000000
C          C       0.46321   0.19684   0.22746   0.0000000000
C          C       0.42995   0.20182   0.19206   0.0000000000
C          C       0.50193   0.23065   0.25396   0.0000000000
N          N       0.31976   0.87254   0.22460   0.0000000000
C          C       0.31362   0.83624   0.24383   0.0000000000
C          C       0.27394   0.80095   0.22671   0.0000000000
C          C       0.26916   0.76235   0.25407   0.0000000000
C          C       0.24045   0.80558   0.19117   0.0000000000
H          H       0.44006   0.02507   0.08400   0.0000000000
H          H       0.44322   0.09276   0.09026   0.0000000000
H          H       0.52852   0.13035   0.45267   0.0000000000
H          H       0.41757   0.99767   0.38216   0.0000000000
H          H       0.34503   0.94175   0.36593   0.0000000000
H          H       0.38198   0.87257   0.09256   0.0000000000
H          H       0.45440   0.92767   0.11283   0.0000000000
H          H       0.42693   0.13027   0.21995   0.0000000000
H          H       0.40035   0.17477   0.16681   0.0000000000
H          H       0.52654   0.22446   0.28134   0.0000000000
H          H       0.33908   0.83105   0.27690   0.0000000000
H          H       0.29614   0.75984   0.28131   0.0000000000
H          H       0.24639   0.83646   0.16647   0.0000000000
C          C       0.99855   0.48119   0.25177   0.0000000000
C          C       0.95925   0.44323   0.25962   0.0000000000
C          C       0.95154   0.41075   0.16540   0.0000000000
C          C       0.91466   0.37491   0.17092   0.0000000000
C          C       0.88519   0.37047   0.27557   0.0000000000
C          C       0.89305   0.40275   0.37099   0.0000000000
C          C       0.92987   0.43856   0.36290   0.0000000000
H          H       0.93712   0.46452   0.43557   0.0000000000
C          C       0.03326   0.47416   0.24651   0.0000000000
C          C       0.02991   0.43946   0.31735   0.0000000000
C          C       0.06053   0.42982   0.30813   0.0000000000
C          C       0.09604   0.45556   0.22927   0.0000000000
C          C       0.09995   0.49039   0.15875   0.0000000000
C          C       0.06897   0.49937   0.16720   0.0000000000
N          N       0.84763   0.33580   0.28198   0.0000000000
C          C       0.84328   0.30116   0.24331   0.0000000000
C          C       0.80316   0.26637   0.22746   0.0000000000
C          C       0.79818   0.22813   0.19206   0.0000000000
C          C       0.76935   0.27128   0.25396   0.0000000000
N          N       0.12746   0.44722   0.22460   0.0000000000
C          C       0.16376   0.47738   0.24383   0.0000000000
C          C       0.19905   0.47299   0.22671   0.0000000000
C          C       0.23765   0.50681   0.25407   0.0000000000
C          C       0.19442   0.43487   0.19117   0.0000000000
H          H       0.97493   0.41499   0.08400   0.0000000000
H          H       0.90724   0.35046   0.09026   0.0000000000
H          H       0.86965   0.39817   0.45267   0.0000000000
H          H       0.00233   0.41990   0.38216   0.0000000000
H          H       0.05825   0.40328   0.36593   0.0000000000
H          H       0.12743   0.50941   0.09256   0.0000000000
H          H       0.07233   0.52673   0.11283   0.0000000000
H          H       0.86973   0.29666   0.21995   0.0000000000
H          H       0.82523   0.22558   0.16681   0.0000000000
H          H       0.77554   0.30208   0.28134   0.0000000000
H          H       0.16895   0.50803   0.27690   0.0000000000
H          H       0.24016   0.53630   0.28131   0.0000000000
H          H       0.16354   0.40993   0.16647   0.0000000000
C          C       0.48119   0.48264   0.75177   0.0000000000
C          C       0.44323   0.48398   0.75962   0.0000000000
C          C       0.41075   0.45921   0.66540   0.0000000000
C          C       0.37491   0.46025   0.67092   0.0000000000
C          C       0.37047   0.48528   0.77557   0.0000000000
C          C       0.40275   0.50970   0.87099   0.0000000000
C          C       0.43856   0.50869   0.86290   0.0000000000
H          H       0.46452   0.52740   0.93557   0.0000000000
C          C       0.47416   0.44090   0.74651   0.0000000000
C          C       0.43946   0.40955   0.81735   0.0000000000
C          C       0.42982   0.36929   0.80814   0.0000000000
C          C       0.45556   0.35952   0.72926   0.0000000000
C          C       0.49039   0.39044   0.65875   0.0000000000
C          C       0.49937   0.43040   0.66720   0.0000000000
N          N       0.33580   0.48817   0.78198   0.0000000000
C          C       0.30116   0.45788   0.74331   0.0000000000
C          C       0.26637   0.46321   0.72745   0.0000000000
C          C       0.22813   0.42995   0.69206   0.0000000000
C          C       0.27128   0.50193   0.75396   0.0000000000
N          N       0.44722   0.31976   0.72460   0.0000000000
C          C       0.47738   0.31362   0.74383   0.0000000000
C          C       0.47299   0.27394   0.72671   0.0000000000
C          C       0.50681   0.26916   0.75407   0.0000000000
C          C       0.43487   0.24045   0.69117   0.0000000000
H          H       0.41499   0.44006   0.58400   0.0000000000
H          H       0.35046   0.44322   0.59027   0.0000000000
H          H       0.39817   0.52852   0.95267   0.0000000000
H          H       0.41990   0.41757   0.88216   0.0000000000
H          H       0.40328   0.34503   0.86593   0.0000000000
H          H       0.50941   0.38198   0.59256   0.0000000000
H          H       0.52673   0.45440   0.61282   0.0000000000
H          H       0.29666   0.42693   0.71995   0.0000000000
H          H       0.22558   0.40035   0.66681   0.0000000000
H          H       0.30208   0.52654   0.78134   0.0000000000
H          H       0.50803   0.33908   0.77690   0.0000000000
H          H       0.53630   0.29614   0.78131   0.0000000000
H          H       0.40993   0.24639   0.66646   0.0000000000
C          C       0.51736   0.99855   0.75177   0.0000000000
C          C       0.51602   0.95925   0.75962   0.0000000000
C          C       0.54079   0.95154   0.66540   0.0000000000
C          C       0.53975   0.91466   0.67092   0.0000000000
C          C       0.51472   0.88519   0.77557   0.0000000000
C          C       0.49030   0.89305   0.87099   0.0000000000
C          C       0.49131   0.92987   0.86290   0.0000000000
H          H       0.47260   0.93712   0.93557   0.0000000000
C          C       0.55910   0.03326   0.74651   0.0000000000
C          C       0.59045   0.02991   0.81735   0.0000000000
C          C       0.63071   0.06053   0.80814   0.0000000000
C          C       0.64048   0.09604   0.72926   0.0000000000
C          C       0.60956   0.09995   0.65875   0.0000000000
C          C       0.56960   0.06897   0.66720   0.0000000000
N          N       0.51183   0.84763   0.78198   0.0000000000
C          C       0.54212   0.84328   0.74331   0.0000000000
C          C       0.53679   0.80316   0.72745   0.0000000000
C          C       0.57005   0.79818   0.69206   0.0000000000
C          C       0.49807   0.76935   0.75396   0.0000000000
N          N       0.68024   0.12746   0.72460   0.0000000000
C          C       0.68638   0.16376   0.74383   0.0000000000
C          C       0.72606   0.19905   0.72671   0.0000000000
C          C       0.73084   0.23765   0.75407   0.0000000000
C          C       0.75955   0.19442   0.69117   0.0000000000
H          H       0.55994   0.97493   0.58400   0.0000000000
H          H       0.55678   0.90724   0.59027   0.0000000000
H          H       0.47148   0.86965   0.95267   0.0000000000
H          H       0.58243   0.00233   0.88216   0.0000000000
H          H       0.65497   0.05825   0.86593   0.0000000000
H          H       0.61802   0.12743   0.59256   0.0000000000
H          H       0.54560   0.07233   0.61282   0.0000000000
H          H       0.57307   0.86973   0.71995   0.0000000000
H          H       0.59965   0.82523   0.66681   0.0000000000
H          H       0.47346   0.77554   0.78134   0.0000000000
H          H       0.66092   0.16895   0.77690   0.0000000000
H          H       0.70386   0.24016   0.78131   0.0000000000
H          H       0.75361   0.16354   0.66646   0.0000000000
C          C       0.00145   0.51881   0.75177   0.0000000000
C          C       0.04075   0.55677   0.75962   0.0000000000
C          C       0.04846   0.58925   0.66540   0.0000000000
C          C       0.08534   0.62509   0.67092   0.0000000000
C          C       0.11481   0.62953   0.77557   0.0000000000
C          C       0.10695   0.59725   0.87099   0.0000000000
C          C       0.07013   0.56144   0.86290   0.0000000000
H          H       0.06288   0.53548   0.93557   0.0000000000
C          C       0.96674   0.52584   0.74651   0.0000000000
C          C       0.97009   0.56054   0.81735   0.0000000000
C          C       0.93947   0.57018   0.80814   0.0000000000
C          C       0.90396   0.54444   0.72926   0.0000000000
C          C       0.90005   0.50961   0.65875   0.0000000000
C          C       0.93103   0.50063   0.66720   0.0000000000
N          N       0.15237   0.66420   0.78198   0.0000000000
C          C       0.15672   0.69884   0.74331   0.0000000000
C          C       0.19684   0.73363   0.72745   0.0000000000
C          C       0.20182   0.77187   0.69206   0.0000000000
C          C       0.23065   0.72872   0.75396   0.0000000000
N          N       0.87254   0.55278   0.72460   0.0000000000
C          C       0.83624   0.52262   0.74383   0.0000000000
C          C       0.80095   0.52701   0.72671   0.0000000000
C          C       0.76235   0.49319   0.75407   0.0000000000
C          C       0.80558   0.56513   0.69117   0.0000000000
H          H       0.02507   0.58501   0.58400   0.0000000000
H          H       0.09276   0.64954   0.59027   0.0000000000
H          H       0.13035   0.60183   0.95267   0.0000000000
H          H       0.99767   0.58010   0.88216   0.0000000000
H          H       0.94175   0.59672   0.86593   0.0000000000
H          H       0.87257   0.49059   0.59256   0.0000000000
H          H       0.92767   0.47327   0.61282   0.0000000000
H          H       0.13027   0.70334   0.71995   0.0000000000
H          H       0.17477   0.77442   0.66681   0.0000000000
H          H       0.22446   0.69792   0.78134   0.0000000000
H          H       0.83105   0.49197   0.77690   0.0000000000
H          H       0.75984   0.46370   0.78131   0.0000000000
H          H       0.83646   0.59007   0.66646   0.0000000000
C          C       0.51881   0.51736   0.75177   0.0000000000
C          C       0.55677   0.51602   0.75962   0.0000000000
C          C       0.58925   0.54079   0.66540   0.0000000000
C          C       0.62509   0.53975   0.67092   0.0000000000
C          C       0.62953   0.51472   0.77557   0.0000000000
C          C       0.59725   0.49030   0.87099   0.0000000000
C          C       0.56144   0.49131   0.86290   0.0000000000
H          H       0.53548   0.47260   0.93557   0.0000000000
C          C       0.52584   0.55910   0.74651   0.0000000000
C          C       0.56054   0.59045   0.81735   0.0000000000
C          C       0.57018   0.63071   0.80814   0.0000000000
C          C       0.54444   0.64048   0.72926   0.0000000000
C          C       0.50961   0.60956   0.65875   0.0000000000
C          C       0.50063   0.56960   0.66720   0.0000000000
N          N       0.66420   0.51183   0.78198   0.0000000000
C          C       0.69884   0.54212   0.74331   0.0000000000
C          C       0.73363   0.53679   0.72745   0.0000000000
C          C       0.77187   0.57005   0.69206   0.0000000000
C          C       0.72872   0.49807   0.75396   0.0000000000
N          N       0.55278   0.68024   0.72460   0.0000000000
C          C       0.52262   0.68638   0.74383   0.0000000000
C          C       0.52701   0.72606   0.72671   0.0000000000
C          C       0.49319   0.73084   0.75407   0.0000000000
C          C       0.56513   0.75955   0.69117   0.0000000000
H          H       0.58501   0.55994   0.58400   0.0000000000
H          H       0.64954   0.55678   0.59027   0.0000000000
H          H       0.60183   0.47148   0.95267   0.0000000000
H          H       0.58010   0.58243   0.88216   0.0000000000
H          H       0.59672   0.65497   0.86593   0.0000000000
H          H       0.49059   0.61802   0.59256   0.0000000000
H          H       0.47327   0.54560   0.61282   0.0000000000
H          H       0.70334   0.57307   0.71995   0.0000000000
H          H       0.77442   0.59965   0.66681   0.0000000000
H          H       0.69792   0.47346   0.78134   0.0000000000
H          H       0.49197   0.66092   0.77690   0.0000000000
H          H       0.46370   0.70386   0.78131   0.0000000000
H          H       0.59007   0.75361   0.66646   0.0000000000
C          C       0.48264   0.00145   0.75177   0.0000000000
C          C       0.48398   0.04075   0.75962   0.0000000000
C          C       0.45921   0.04846   0.66540   0.0000000000
C          C       0.46025   0.08534   0.67092   0.0000000000
C          C       0.48528   0.11481   0.77557   0.0000000000
C          C       0.50970   0.10695   0.87099   0.0000000000
C          C       0.50869   0.07013   0.86290   0.0000000000
H          H       0.52740   0.06288   0.93557   0.0000000000
C          C       0.44090   0.96674   0.74651   0.0000000000
C          C       0.40955   0.97009   0.81735   0.0000000000
C          C       0.36929   0.93947   0.80814   0.0000000000
C          C       0.35952   0.90396   0.72926   0.0000000000
C          C       0.39044   0.90005   0.65875   0.0000000000
C          C       0.43040   0.93103   0.66720   0.0000000000
N          N       0.48817   0.15237   0.78198   0.0000000000
C          C       0.45788   0.15672   0.74331   0.0000000000
C          C       0.46321   0.19684   0.72745   0.0000000000
C          C       0.42995   0.20182   0.69206   0.0000000000
C          C       0.50193   0.23065   0.75396   0.0000000000
N          N       0.31976   0.87254   0.72460   0.0000000000
C          C       0.31362   0.83624   0.74383   0.0000000000
C          C       0.27394   0.80095   0.72671   0.0000000000
C          C       0.26916   0.76235   0.75407   0.0000000000
C          C       0.24045   0.80558   0.69117   0.0000000000
H          H       0.44006   0.02507   0.58400   0.0000000000
H          H       0.44322   0.09276   0.59027   0.0000000000
H          H       0.52852   0.13035   0.95267   0.0000000000
H          H       0.41757   0.99767   0.88216   0.0000000000
H          H       0.34503   0.94175   0.86593   0.0000000000
H          H       0.38198   0.87257   0.59256   0.0000000000
H          H       0.45440   0.92767   0.61282   0.0000000000
H          H       0.42693   0.13027   0.71995   0.0000000000
H          H       0.40035   0.17477   0.66681   0.0000000000
H          H       0.52654   0.22446   0.78134   0.0000000000
H          H       0.33908   0.83105   0.77690   0.0000000000
H          H       0.29614   0.75984   0.78131   0.0000000000
H          H       0.24639   0.83646   0.66646   0.0000000000
C          C       0.99855   0.48119   0.75177   0.0000000000
C          C       0.95925   0.44323   0.75962   0.0000000000
C          C       0.95154   0.41075   0.66540   0.0000000000
C          C       0.91466   0.37491   0.67092   0.0000000000
C          C       0.88519   0.37047   0.77557   0.0000000000
C          C       0.89305   0.40275   0.87099   0.0000000000
C          C       0.92987   0.43856   0.86290   0.0000000000
H          H       0.93712   0.46452   0.93557   0.0000000000
C          C       0.03326   0.47416   0.74651   0.0000000000
C          C       0.02991   0.43946   0.81735   0.0000000000
C          C       0.06053   0.42982   0.80814   0.0000000000
C          C       0.09604   0.45556   0.72926   0.0000000000
C          C       0.09995   0.49039   0.65875   0.0000000000
C          C       0.06897   0.49937   0.66720   0.0000000000
N          N       0.84763   0.33580   0.78198   0.0000000000
C          C       0.84328   0.30116   0.74331   0.0000000000
C          C       0.80316   0.26637   0.72745   0.0000000000
C          C       0.79818   0.22813   0.69206   0.0000000000
C          C       0.76935   0.27128   0.75396   0.0000000000
N          N       0.12746   0.44722   0.72460   0.0000000000
C          C       0.16376   0.47738   0.74383   0.0000000000
C          C       0.19905   0.47299   0.72671   0.0000000000
C          C       0.23765   0.50681   0.75407   0.0000000000
C          C       0.19442   0.43487   0.69117   0.0000000000
H          H       0.97493   0.41499   0.58400   0.0000000000
H          H       0.90724   0.35046   0.59027   0.0000000000
H          H       0.86965   0.39817   0.95267   0.0000000000
H          H       0.00233   0.41990   0.88216   0.0000000000
H          H       0.05825   0.40328   0.86593   0.0000000000
H          H       0.12743   0.50941   0.59256   0.0000000000
H          H       0.07233   0.52673   0.61282   0.0000000000
H          H       0.86973   0.29666   0.71995   0.0000000000
H          H       0.82523   0.22558   0.66681   0.0000000000
H          H       0.77554   0.30208   0.78134   0.0000000000
H          H       0.16895   0.50803   0.77690   0.0000000000
H          H       0.24016   0.53630   0.78131   0.0000000000
H          H       0.16354   0.40993   0.66646   0.0000000000
