data_crystal
 
_cell_length_a    18.68310
_cell_length_b    21.44710
_cell_length_c    30.24590
_cell_angle_alpha 90.00000
_cell_angle_beta  90.00000
_cell_angle_gamma 90.00000
 
_symmetry_space_group_name_Hall 'P 1'
_symmetry_space_group_name_H-M  'P 1'
 
loop_
_symmetry_equiv_pos_as_xyz
 'x,y,z' 
 
loop_
_atom_site_label
_atom_site_type_symbol
_atom_site_fract_x
_atom_site_fract_y
_atom_site_fract_z
_atom_site_charge
C          C       0.96454   0.07780   0.19498   0.0000000000
C          C       0.96331   0.11323   0.23411   0.0000000000
C          C       0.02597   0.12826   0.25602   0.0000000000
C          C       0.09157   0.11157   0.23799   0.0000000000
C          C       0.15414   0.13976   0.25372   0.0000000000
C          C       0.21930   0.12941   0.23272   0.0000000000
C          C       0.22401   0.08741   0.19751   0.0000000000
C          C       0.28818   0.08084   0.17424   0.0000000000
C          C       0.29005   0.04635   0.13527   0.0000000000
C          C       0.22902   0.01390   0.12085   0.0000000000
C          C       0.16254   0.05522   0.18276   0.0000000000
C          C       0.09373   0.07022   0.20158   0.0000000000
C          C       0.68698   0.07419   0.10232   0.0000000000
C          C       0.23585   0.98617   0.07567   0.0000000000
C          C       0.22847   0.92193   0.06763   0.0000000000
C          C       0.22878   0.89763   0.02378   0.0000000000
C          C       0.23710   0.93606   0.98643   0.0000000000
C          C       0.24663   0.99982   0.99480   0.0000000000
C          C       0.24804   0.02383   0.03818   0.0000000000
C          C       0.22171   0.91027   0.94057   0.0000000000
C          C       0.05232   0.84775   0.13748   0.0000000000
C          C       0.06877   0.79394   0.11361   0.0000000000
C          C       0.08033   0.79788   0.06902   0.0000000000
C          C       0.07676   0.85386   0.04882   0.0000000000
C          C       0.07873   0.85685   0.00320   0.0000000000
C          C       0.07609   0.91408   0.98267   0.0000000000
C          C       0.07661   0.96979   0.00688   0.0000000000
C          C       0.08987   0.02677   0.98655   0.0000000000
C          C       0.10546   0.07919   0.01201   0.0000000000
C          C       0.09628   0.07758   0.05776   0.0000000000
C          C       0.06732   0.96820   0.05277   0.0000000000
C          C       0.06520   0.90846   0.07435   0.0000000000
C          C       0.89180   0.78705   0.28761   0.0000000000
C          C       0.12826   0.31119   0.15450   0.0000000000
N          N       0.03030   0.05138   0.18189   0.0000000000
N          N       0.16856   0.01611   0.14720   0.0000000000
N          N       0.06352   0.90624   0.11850   0.0000000000
N          N       0.06975   0.02318   0.07594   0.0000000000
N          N       0.65476   0.02034   0.10078   0.0000000000
N          N       0.22881   0.94258   0.90399   0.0000000000
N          N       0.92313   0.78136   0.32573   0.0000000000
N          N       0.07089   0.34609   0.15307   0.0000000000
C          C       0.98025   0.82292   0.82411   0.0000000000
C          C       0.94868   0.80698   0.78433   0.0000000000
C          C       0.99025   0.78498   0.74956   0.0000000000
C          C       0.06469   0.78123   0.75330   0.0000000000
C          C       0.09681   0.79528   0.79360   0.0000000000
C          C       0.05454   0.81768   0.82857   0.0000000000
C          C       0.37149   0.49102   0.56308   0.0000000000
C          C       0.37882   0.42634   0.56237   0.0000000000
C          C       0.39661   0.39400   0.52387   0.0000000000
C          C       0.40629   0.42388   0.48496   0.0000000000
C          C       0.40605   0.49121   0.48455   0.0000000000
C          C       0.38553   0.52349   0.52328   0.0000000000
C          C       0.41053   0.38542   0.44371   0.0000000000
C          C       0.37013   0.40240   0.40679   0.0000000000
C          C       0.36161   0.36249   0.37026   0.0000000000
C          C       0.40242   0.30769   0.36754   0.0000000000
C          C       0.44242   0.29041   0.40445   0.0000000000
C          C       0.44613   0.32858   0.44161   0.0000000000
C          C       0.95361   0.40030   0.81697   0.0000000000
C          C       0.93146   0.39902   0.77408   0.0000000000
C          C       0.98045   0.41408   0.74023   0.0000000000
C          C       0.05215   0.42852   0.74831   0.0000000000
C          C       0.07191   0.43564   0.79274   0.0000000000
C          C       0.02274   0.42002   0.82646   0.0000000000
C          C       0.09686   0.43606   0.71341   0.0000000000
C          C       0.07199   0.44413   0.67063   0.0000000000
C          C       0.11508   0.44434   0.63385   0.0000000000
C          C       0.18723   0.43108   0.63588   0.0000000000
C          C       0.21654   0.42222   0.67870   0.0000000000
C          C       0.17166   0.42412   0.71728   0.0000000000
C          C       0.11491   0.13458   0.08476   0.0000000000
C          C       0.06897   0.15172   0.11824   0.0000000000
C          C       0.07571   0.20677   0.14150   0.0000000000
C          C       0.12844   0.25018   0.13099   0.0000000000
C          C       0.17832   0.23392   0.09804   0.0000000000
C          C       0.17123   0.17668   0.07481   0.0000000000
C          C       0.75487   0.08017   0.12812   0.0000000000
C          C       0.76072   0.06631   0.17314   0.0000000000
C          C       0.82833   0.06656   0.19419   0.0000000000
C          C       0.89301   0.07602   0.17035   0.0000000000
C          C       0.88547   0.08906   0.12502   0.0000000000
C          C       0.81795   0.09218   0.10492   0.0000000000
H          H       0.91012   0.13001   0.24823   0.0000000000
H          H       0.02372   0.15432   0.28884   0.0000000000
H          H       0.15192   0.17146   0.28395   0.0000000000
H          H       0.26927   0.15525   0.24420   0.0000000000
H          H       0.33912   0.10373   0.18716   0.0000000000
H          H       0.34129   0.04432   0.11485   0.0000000000
H          H       0.66334   0.11594   0.08413   0.0000000000
H          H       0.22209   0.88818   0.09648   0.0000000000
H          H       0.22213   0.84542   0.01806   0.0000000000
H          H       0.25349   0.03377   0.96611   0.0000000000
H          H       0.25956   0.07570   0.04236   0.0000000000
H          H       0.20300   0.85972   0.93909   0.0000000000
H          H       0.07249   0.74709   0.13126   0.0000000000
H          H       0.09289   0.75402   0.04919   0.0000000000
H          H       0.08252   0.81217   0.98292   0.0000000000
H          H       0.07339   0.91696   0.94507   0.0000000000
H          H       0.08800   0.03068   0.94898   0.0000000000
H          H       0.12578   0.12354   0.99546   0.0000000000
H          H       0.83179   0.79638   0.28590   0.0000000000
H          H       0.17739   0.32759   0.17360   0.0000000000
H          H       0.88833   0.81187   0.77996   0.0000000000
H          H       0.96370   0.76967   0.71741   0.0000000000
H          H       0.15692   0.78858   0.79801   0.0000000000
H          H       0.08151   0.83167   0.86089   0.0000000000
H          H       0.37022   0.39820   0.59390   0.0000000000
H          H       0.40331   0.34118   0.52477   0.0000000000
H          H       0.42223   0.51745   0.45333   0.0000000000
H          H       0.38036   0.57643   0.52215   0.0000000000
H          H       0.34281   0.44990   0.40562   0.0000000000
H          H       0.32172   0.37473   0.34309   0.0000000000
H          H       0.47282   0.24432   0.40455   0.0000000000
H          H       0.47957   0.31201   0.47086   0.0000000000
H          H       0.87386   0.38587   0.76584   0.0000000000
H          H       0.96209   0.41485   0.70429   0.0000000000
H          H       0.12741   0.45396   0.80150   0.0000000000
H          H       0.04118   0.42397   0.86228   0.0000000000
H          H       0.01238   0.45115   0.66433   0.0000000000
H          H       0.09145   0.45577   0.60006   0.0000000000
H          H       0.27636   0.41347   0.68282   0.0000000000
H          H       0.19646   0.41596   0.75123   0.0000000000
H          H       0.02273   0.11982   0.12788   0.0000000000
H          H       0.03764   0.21745   0.16997   0.0000000000
H          H       0.22452   0.26672   0.08996   0.0000000000
H          H       0.21160   0.16478   0.04783   0.0000000000
H          H       0.71077   0.05469   0.19317   0.0000000000
H          H       0.83215   0.05901   0.23142   0.0000000000
H          H       0.93494   0.09737   0.10375   0.0000000000
H          H       0.81562   0.10503   0.06837   0.0000000000
C          C       0.46454   0.57780   0.19498   0.0000000000
C          C       0.46331   0.61323   0.23411   0.0000000000
C          C       0.52597   0.62826   0.25602   0.0000000000
C          C       0.59157   0.61157   0.23799   0.0000000000
C          C       0.65414   0.63976   0.25372   0.0000000000
C          C       0.71930   0.62941   0.23272   0.0000000000
C          C       0.72401   0.58741   0.19751   0.0000000000
C          C       0.78818   0.58084   0.17424   0.0000000000
C          C       0.79005   0.54635   0.13527   0.0000000000
C          C       0.72902   0.51390   0.12085   0.0000000000
C          C       0.66254   0.55522   0.18276   0.0000000000
C          C       0.59373   0.57022   0.20158   0.0000000000
C          C       0.18698   0.57419   0.10232   0.0000000000
C          C       0.73585   0.48617   0.07567   0.0000000000
C          C       0.72847   0.42193   0.06763   0.0000000000
C          C       0.72878   0.39763   0.02378   0.0000000000
C          C       0.73710   0.43606   0.98643   0.0000000000
C          C       0.74663   0.49982   0.99480   0.0000000000
C          C       0.74804   0.52383   0.03818   0.0000000000
C          C       0.72171   0.41027   0.94057   0.0000000000
C          C       0.55232   0.34775   0.13748   0.0000000000
C          C       0.56877   0.29394   0.11361   0.0000000000
C          C       0.58033   0.29788   0.06902   0.0000000000
C          C       0.57676   0.35386   0.04882   0.0000000000
C          C       0.57873   0.35685   0.00320   0.0000000000
C          C       0.57609   0.41408   0.98267   0.0000000000
C          C       0.57661   0.46979   0.00688   0.0000000000
C          C       0.58987   0.52677   0.98655   0.0000000000
C          C       0.60546   0.57919   0.01201   0.0000000000
C          C       0.59628   0.57758   0.05776   0.0000000000
C          C       0.56732   0.46820   0.05277   0.0000000000
C          C       0.56520   0.40846   0.07435   0.0000000000
C          C       0.39180   0.28705   0.28761   0.0000000000
C          C       0.62826   0.81119   0.15450   0.0000000000
N          N       0.53030   0.55138   0.18189   0.0000000000
N          N       0.66856   0.51611   0.14720   0.0000000000
N          N       0.56352   0.40624   0.11850   0.0000000000
N          N       0.56975   0.52318   0.07594   0.0000000000
N          N       0.15476   0.52034   0.10078   0.0000000000
N          N       0.72881   0.44258   0.90399   0.0000000000
N          N       0.42313   0.28136   0.32573   0.0000000000
N          N       0.57089   0.84609   0.15307   0.0000000000
C          C       0.48025   0.32292   0.82411   0.0000000000
C          C       0.44868   0.30698   0.78433   0.0000000000
C          C       0.49025   0.28498   0.74956   0.0000000000
C          C       0.56469   0.28123   0.75330   0.0000000000
C          C       0.59681   0.29528   0.79360   0.0000000000
C          C       0.55454   0.31768   0.82857   0.0000000000
C          C       0.87149   0.99102   0.56308   0.0000000000
C          C       0.87882   0.92634   0.56237   0.0000000000
C          C       0.89661   0.89400   0.52387   0.0000000000
C          C       0.90629   0.92388   0.48496   0.0000000000
C          C       0.90605   0.99121   0.48455   0.0000000000
C          C       0.88553   0.02349   0.52328   0.0000000000
C          C       0.91053   0.88542   0.44371   0.0000000000
C          C       0.87013   0.90240   0.40679   0.0000000000
C          C       0.86161   0.86249   0.37026   0.0000000000
C          C       0.90242   0.80769   0.36754   0.0000000000
C          C       0.94242   0.79041   0.40445   0.0000000000
C          C       0.94613   0.82858   0.44161   0.0000000000
C          C       0.45361   0.90030   0.81697   0.0000000000
C          C       0.43146   0.89902   0.77408   0.0000000000
C          C       0.48045   0.91408   0.74023   0.0000000000
C          C       0.55215   0.92852   0.74831   0.0000000000
C          C       0.57191   0.93564   0.79274   0.0000000000
C          C       0.52274   0.92002   0.82646   0.0000000000
C          C       0.59686   0.93606   0.71341   0.0000000000
C          C       0.57199   0.94413   0.67063   0.0000000000
C          C       0.61508   0.94434   0.63385   0.0000000000
C          C       0.68723   0.93108   0.63588   0.0000000000
C          C       0.71654   0.92222   0.67870   0.0000000000
C          C       0.67166   0.92412   0.71728   0.0000000000
C          C       0.61491   0.63458   0.08476   0.0000000000
C          C       0.56897   0.65172   0.11824   0.0000000000
C          C       0.57571   0.70677   0.14150   0.0000000000
C          C       0.62844   0.75018   0.13099   0.0000000000
C          C       0.67832   0.73392   0.09804   0.0000000000
C          C       0.67123   0.67668   0.07481   0.0000000000
C          C       0.25487   0.58017   0.12812   0.0000000000
C          C       0.26072   0.56631   0.17314   0.0000000000
C          C       0.32833   0.56656   0.19419   0.0000000000
C          C       0.39301   0.57602   0.17035   0.0000000000
C          C       0.38547   0.58906   0.12502   0.0000000000
C          C       0.31795   0.59218   0.10492   0.0000000000
H          H       0.41012   0.63001   0.24823   0.0000000000
H          H       0.52372   0.65432   0.28884   0.0000000000
H          H       0.65192   0.67146   0.28395   0.0000000000
H          H       0.76927   0.65525   0.24420   0.0000000000
H          H       0.83912   0.60373   0.18716   0.0000000000
H          H       0.84129   0.54432   0.11485   0.0000000000
H          H       0.16334   0.61594   0.08413   0.0000000000
H          H       0.72209   0.38818   0.09648   0.0000000000
H          H       0.72213   0.34542   0.01806   0.0000000000
H          H       0.75349   0.53377   0.96611   0.0000000000
H          H       0.75956   0.57570   0.04236   0.0000000000
H          H       0.70300   0.35972   0.93909   0.0000000000
H          H       0.57249   0.24709   0.13126   0.0000000000
H          H       0.59289   0.25402   0.04919   0.0000000000
H          H       0.58252   0.31217   0.98292   0.0000000000
H          H       0.57339   0.41696   0.94507   0.0000000000
H          H       0.58800   0.53068   0.94898   0.0000000000
H          H       0.62578   0.62354   0.99546   0.0000000000
H          H       0.33179   0.29638   0.28590   0.0000000000
H          H       0.67739   0.82759   0.17360   0.0000000000
H          H       0.38833   0.31187   0.77996   0.0000000000
H          H       0.46370   0.26967   0.71741   0.0000000000
H          H       0.65692   0.28858   0.79801   0.0000000000
H          H       0.58151   0.33167   0.86089   0.0000000000
H          H       0.87022   0.89820   0.59390   0.0000000000
H          H       0.90331   0.84118   0.52477   0.0000000000
H          H       0.92223   0.01745   0.45333   0.0000000000
H          H       0.88036   0.07643   0.52215   0.0000000000
H          H       0.84281   0.94990   0.40562   0.0000000000
H          H       0.82172   0.87473   0.34309   0.0000000000
H          H       0.97282   0.74432   0.40455   0.0000000000
H          H       0.97957   0.81201   0.47086   0.0000000000
H          H       0.37386   0.88587   0.76584   0.0000000000
H          H       0.46209   0.91485   0.70429   0.0000000000
H          H       0.62741   0.95396   0.80150   0.0000000000
H          H       0.54118   0.92397   0.86228   0.0000000000
H          H       0.51238   0.95115   0.66433   0.0000000000
H          H       0.59145   0.95577   0.60006   0.0000000000
H          H       0.77636   0.91347   0.68282   0.0000000000
H          H       0.69646   0.91596   0.75123   0.0000000000
H          H       0.52273   0.61982   0.12788   0.0000000000
H          H       0.53764   0.71745   0.16997   0.0000000000
H          H       0.72452   0.76672   0.08996   0.0000000000
H          H       0.71160   0.66478   0.04783   0.0000000000
H          H       0.21077   0.55469   0.19317   0.0000000000
H          H       0.33215   0.55901   0.23142   0.0000000000
H          H       0.43494   0.59737   0.10375   0.0000000000
H          H       0.31562   0.60503   0.06837   0.0000000000
C          C       0.03546   0.07780   0.80502   0.0000000000
C          C       0.03669   0.11323   0.76589   0.0000000000
C          C       0.97403   0.12826   0.74398   0.0000000000
C          C       0.90843   0.11157   0.76201   0.0000000000
C          C       0.84586   0.13976   0.74628   0.0000000000
C          C       0.78070   0.12941   0.76728   0.0000000000
C          C       0.77599   0.08741   0.80249   0.0000000000
C          C       0.71182   0.08084   0.82576   0.0000000000
C          C       0.70995   0.04635   0.86473   0.0000000000
C          C       0.77098   0.01390   0.87915   0.0000000000
C          C       0.83746   0.05522   0.81724   0.0000000000
C          C       0.90627   0.07022   0.79842   0.0000000000
C          C       0.31302   0.07419   0.89768   0.0000000000
C          C       0.76415   0.98617   0.92433   0.0000000000
C          C       0.77153   0.92193   0.93237   0.0000000000
C          C       0.77122   0.89763   0.97622   0.0000000000
C          C       0.76290   0.93606   0.01357   0.0000000000
C          C       0.75337   0.99982   0.00520   0.0000000000
C          C       0.75196   0.02383   0.96182   0.0000000000
C          C       0.77829   0.91027   0.05943   0.0000000000
C          C       0.94768   0.84775   0.86252   0.0000000000
C          C       0.93123   0.79394   0.88639   0.0000000000
C          C       0.91967   0.79788   0.93098   0.0000000000
C          C       0.92324   0.85386   0.95118   0.0000000000
C          C       0.92127   0.85685   0.99680   0.0000000000
C          C       0.92391   0.91408   0.01733   0.0000000000
C          C       0.92339   0.96979   0.99312   0.0000000000
C          C       0.91013   0.02677   0.01345   0.0000000000
C          C       0.89454   0.07919   0.98799   0.0000000000
C          C       0.90372   0.07758   0.94224   0.0000000000
C          C       0.93268   0.96820   0.94723   0.0000000000
C          C       0.93480   0.90846   0.92565   0.0000000000
C          C       0.10820   0.78705   0.71239   0.0000000000
C          C       0.87174   0.31119   0.84550   0.0000000000
N          N       0.96970   0.05138   0.81811   0.0000000000
N          N       0.83144   0.01611   0.85280   0.0000000000
N          N       0.93648   0.90624   0.88150   0.0000000000
N          N       0.93025   0.02318   0.92406   0.0000000000
N          N       0.34524   0.02034   0.89922   0.0000000000
N          N       0.77119   0.94258   0.09601   0.0000000000
N          N       0.07687   0.78136   0.67427   0.0000000000
N          N       0.92911   0.34609   0.84693   0.0000000000
C          C       0.01975   0.82292   0.17589   0.0000000000
C          C       0.05132   0.80698   0.21567   0.0000000000
C          C       0.00975   0.78498   0.25044   0.0000000000
C          C       0.93531   0.78123   0.24670   0.0000000000
C          C       0.90319   0.79528   0.20640   0.0000000000
C          C       0.94546   0.81768   0.17143   0.0000000000
C          C       0.62851   0.49102   0.43692   0.0000000000
C          C       0.62118   0.42634   0.43763   0.0000000000
C          C       0.60339   0.39400   0.47613   0.0000000000
C          C       0.59371   0.42388   0.51504   0.0000000000
C          C       0.59395   0.49121   0.51545   0.0000000000
C          C       0.61447   0.52349   0.47672   0.0000000000
C          C       0.58947   0.38542   0.55629   0.0000000000
C          C       0.62987   0.40240   0.59321   0.0000000000
C          C       0.63839   0.36249   0.62974   0.0000000000
C          C       0.59758   0.30769   0.63246   0.0000000000
C          C       0.55758   0.29041   0.59555   0.0000000000
C          C       0.55387   0.32858   0.55839   0.0000000000
C          C       0.04639   0.40030   0.18303   0.0000000000
C          C       0.06854   0.39902   0.22592   0.0000000000
C          C       0.01955   0.41408   0.25977   0.0000000000
C          C       0.94785   0.42852   0.25169   0.0000000000
C          C       0.92809   0.43564   0.20726   0.0000000000
C          C       0.97726   0.42002   0.17354   0.0000000000
C          C       0.90314   0.43606   0.28659   0.0000000000
C          C       0.92801   0.44413   0.32937   0.0000000000
C          C       0.88492   0.44434   0.36615   0.0000000000
C          C       0.81277   0.43108   0.36412   0.0000000000
C          C       0.78346   0.42222   0.32130   0.0000000000
C          C       0.82834   0.42412   0.28272   0.0000000000
C          C       0.88509   0.13458   0.91524   0.0000000000
C          C       0.93103   0.15172   0.88176   0.0000000000
C          C       0.92429   0.20677   0.85850   0.0000000000
C          C       0.87156   0.25018   0.86901   0.0000000000
C          C       0.82168   0.23392   0.90196   0.0000000000
C          C       0.82877   0.17668   0.92519   0.0000000000
C          C       0.24513   0.08017   0.87188   0.0000000000
C          C       0.23928   0.06631   0.82686   0.0000000000
C          C       0.17167   0.06656   0.80581   0.0000000000
C          C       0.10699   0.07602   0.82965   0.0000000000
C          C       0.11453   0.08906   0.87498   0.0000000000
C          C       0.18205   0.09218   0.89508   0.0000000000
H          H       0.08988   0.13001   0.75177   0.0000000000
H          H       0.97628   0.15432   0.71116   0.0000000000
H          H       0.84808   0.17146   0.71605   0.0000000000
H          H       0.73073   0.15525   0.75580   0.0000000000
H          H       0.66088   0.10373   0.81284   0.0000000000
H          H       0.65871   0.04432   0.88515   0.0000000000
H          H       0.33666   0.11594   0.91587   0.0000000000
H          H       0.77791   0.88818   0.90352   0.0000000000
H          H       0.77787   0.84542   0.98194   0.0000000000
H          H       0.74651   0.03377   0.03389   0.0000000000
H          H       0.74044   0.07570   0.95764   0.0000000000
H          H       0.79700   0.85972   0.06091   0.0000000000
H          H       0.92751   0.74709   0.86874   0.0000000000
H          H       0.90711   0.75402   0.95081   0.0000000000
H          H       0.91748   0.81217   0.01708   0.0000000000
H          H       0.92661   0.91696   0.05493   0.0000000000
H          H       0.91200   0.03068   0.05102   0.0000000000
H          H       0.87422   0.12354   0.00454   0.0000000000
H          H       0.16821   0.79638   0.71410   0.0000000000
H          H       0.82261   0.32759   0.82640   0.0000000000
H          H       0.11167   0.81187   0.22004   0.0000000000
H          H       0.03630   0.76967   0.28259   0.0000000000
H          H       0.84308   0.78858   0.20199   0.0000000000
H          H       0.91849   0.83167   0.13911   0.0000000000
H          H       0.62978   0.39820   0.40610   0.0000000000
H          H       0.59669   0.34118   0.47523   0.0000000000
H          H       0.57777   0.51745   0.54667   0.0000000000
H          H       0.61964   0.57643   0.47785   0.0000000000
H          H       0.65719   0.44990   0.59438   0.0000000000
H          H       0.67828   0.37473   0.65691   0.0000000000
H          H       0.52718   0.24432   0.59545   0.0000000000
H          H       0.52043   0.31201   0.52914   0.0000000000
H          H       0.12614   0.38587   0.23416   0.0000000000
H          H       0.03791   0.41485   0.29571   0.0000000000
H          H       0.87259   0.45396   0.19850   0.0000000000
H          H       0.95882   0.42397   0.13772   0.0000000000
H          H       0.98762   0.45115   0.33567   0.0000000000
H          H       0.90855   0.45577   0.39994   0.0000000000
H          H       0.72364   0.41347   0.31718   0.0000000000
H          H       0.80354   0.41596   0.24877   0.0000000000
H          H       0.97727   0.11982   0.87212   0.0000000000
H          H       0.96236   0.21745   0.83003   0.0000000000
H          H       0.77548   0.26672   0.91004   0.0000000000
H          H       0.78840   0.16478   0.95217   0.0000000000
H          H       0.28923   0.05469   0.80683   0.0000000000
H          H       0.16785   0.05901   0.76858   0.0000000000
H          H       0.06506   0.09737   0.89625   0.0000000000
H          H       0.18438   0.10503   0.93163   0.0000000000
C          C       0.53546   0.57780   0.80502   0.0000000000
C          C       0.53669   0.61323   0.76589   0.0000000000
C          C       0.47403   0.62826   0.74398   0.0000000000
C          C       0.40843   0.61157   0.76201   0.0000000000
C          C       0.34586   0.63976   0.74628   0.0000000000
C          C       0.28070   0.62941   0.76728   0.0000000000
C          C       0.27599   0.58741   0.80249   0.0000000000
C          C       0.21182   0.58084   0.82576   0.0000000000
C          C       0.20995   0.54635   0.86473   0.0000000000
C          C       0.27098   0.51390   0.87915   0.0000000000
C          C       0.33746   0.55522   0.81724   0.0000000000
C          C       0.40627   0.57022   0.79842   0.0000000000
C          C       0.81302   0.57419   0.89768   0.0000000000
C          C       0.26415   0.48617   0.92433   0.0000000000
C          C       0.27153   0.42193   0.93237   0.0000000000
C          C       0.27122   0.39763   0.97622   0.0000000000
C          C       0.26290   0.43606   0.01357   0.0000000000
C          C       0.25337   0.49982   0.00520   0.0000000000
C          C       0.25196   0.52383   0.96182   0.0000000000
C          C       0.27829   0.41027   0.05943   0.0000000000
C          C       0.44768   0.34775   0.86252   0.0000000000
C          C       0.43123   0.29394   0.88639   0.0000000000
C          C       0.41967   0.29788   0.93098   0.0000000000
C          C       0.42324   0.35386   0.95118   0.0000000000
C          C       0.42127   0.35685   0.99680   0.0000000000
C          C       0.42391   0.41408   0.01733   0.0000000000
C          C       0.42339   0.46979   0.99312   0.0000000000
C          C       0.41013   0.52677   0.01345   0.0000000000
C          C       0.39454   0.57919   0.98799   0.0000000000
C          C       0.40372   0.57758   0.94224   0.0000000000
C          C       0.43268   0.46820   0.94723   0.0000000000
C          C       0.43480   0.40846   0.92565   0.0000000000
C          C       0.60820   0.28705   0.71239   0.0000000000
C          C       0.37174   0.81119   0.84550   0.0000000000
N          N       0.46970   0.55138   0.81811   0.0000000000
N          N       0.33144   0.51611   0.85280   0.0000000000
N          N       0.43648   0.40624   0.88150   0.0000000000
N          N       0.43025   0.52318   0.92406   0.0000000000
N          N       0.84524   0.52034   0.89922   0.0000000000
N          N       0.27119   0.44258   0.09601   0.0000000000
N          N       0.57687   0.28136   0.67427   0.0000000000
N          N       0.42911   0.84609   0.84693   0.0000000000
C          C       0.51975   0.32292   0.17589   0.0000000000
C          C       0.55132   0.30698   0.21567   0.0000000000
C          C       0.50975   0.28498   0.25044   0.0000000000
C          C       0.43531   0.28123   0.24670   0.0000000000
C          C       0.40319   0.29528   0.20640   0.0000000000
C          C       0.44546   0.31768   0.17143   0.0000000000
C          C       0.12851   0.99102   0.43692   0.0000000000
C          C       0.12118   0.92634   0.43763   0.0000000000
C          C       0.10339   0.89400   0.47613   0.0000000000
C          C       0.09371   0.92388   0.51504   0.0000000000
C          C       0.09395   0.99121   0.51545   0.0000000000
C          C       0.11447   0.02349   0.47672   0.0000000000
C          C       0.08947   0.88542   0.55629   0.0000000000
C          C       0.12987   0.90240   0.59321   0.0000000000
C          C       0.13839   0.86249   0.62974   0.0000000000
C          C       0.09758   0.80769   0.63246   0.0000000000
C          C       0.05758   0.79041   0.59555   0.0000000000
C          C       0.05387   0.82858   0.55839   0.0000000000
C          C       0.54639   0.90030   0.18303   0.0000000000
C          C       0.56854   0.89902   0.22592   0.0000000000
C          C       0.51955   0.91408   0.25977   0.0000000000
C          C       0.44785   0.92852   0.25169   0.0000000000
C          C       0.42809   0.93564   0.20726   0.0000000000
C          C       0.47726   0.92002   0.17354   0.0000000000
C          C       0.40314   0.93606   0.28659   0.0000000000
C          C       0.42801   0.94413   0.32937   0.0000000000
C          C       0.38492   0.94434   0.36615   0.0000000000
C          C       0.31277   0.93108   0.36412   0.0000000000
C          C       0.28346   0.92222   0.32130   0.0000000000
C          C       0.32834   0.92412   0.28272   0.0000000000
C          C       0.38509   0.63458   0.91524   0.0000000000
C          C       0.43103   0.65172   0.88176   0.0000000000
C          C       0.42429   0.70677   0.85850   0.0000000000
C          C       0.37156   0.75018   0.86901   0.0000000000
C          C       0.32168   0.73392   0.90196   0.0000000000
C          C       0.32877   0.67668   0.92519   0.0000000000
C          C       0.74513   0.58017   0.87188   0.0000000000
C          C       0.73928   0.56631   0.82686   0.0000000000
C          C       0.67167   0.56656   0.80581   0.0000000000
C          C       0.60699   0.57602   0.82965   0.0000000000
C          C       0.61453   0.58906   0.87498   0.0000000000
C          C       0.68205   0.59218   0.89508   0.0000000000
H          H       0.58988   0.63001   0.75177   0.0000000000
H          H       0.47628   0.65432   0.71116   0.0000000000
H          H       0.34808   0.67146   0.71605   0.0000000000
H          H       0.23073   0.65525   0.75580   0.0000000000
H          H       0.16088   0.60373   0.81284   0.0000000000
H          H       0.15871   0.54432   0.88515   0.0000000000
H          H       0.83666   0.61594   0.91587   0.0000000000
H          H       0.27791   0.38818   0.90352   0.0000000000
H          H       0.27787   0.34542   0.98194   0.0000000000
H          H       0.24651   0.53377   0.03389   0.0000000000
H          H       0.24044   0.57570   0.95764   0.0000000000
H          H       0.29700   0.35972   0.06091   0.0000000000
H          H       0.42751   0.24709   0.86874   0.0000000000
H          H       0.40711   0.25402   0.95081   0.0000000000
H          H       0.41748   0.31217   0.01708   0.0000000000
H          H       0.42661   0.41696   0.05493   0.0000000000
H          H       0.41200   0.53068   0.05102   0.0000000000
H          H       0.37422   0.62354   0.00454   0.0000000000
H          H       0.66821   0.29638   0.71410   0.0000000000
H          H       0.32261   0.82759   0.82640   0.0000000000
H          H       0.61167   0.31187   0.22004   0.0000000000
H          H       0.53630   0.26967   0.28259   0.0000000000
H          H       0.34308   0.28858   0.20199   0.0000000000
H          H       0.41849   0.33167   0.13911   0.0000000000
H          H       0.12978   0.89820   0.40610   0.0000000000
H          H       0.09669   0.84118   0.47523   0.0000000000
H          H       0.07777   0.01745   0.54667   0.0000000000
H          H       0.11964   0.07643   0.47785   0.0000000000
H          H       0.15719   0.94990   0.59438   0.0000000000
H          H       0.17828   0.87473   0.65691   0.0000000000
H          H       0.02718   0.74432   0.59545   0.0000000000
H          H       0.02043   0.81201   0.52914   0.0000000000
H          H       0.62614   0.88587   0.23416   0.0000000000
H          H       0.53791   0.91485   0.29571   0.0000000000
H          H       0.37259   0.95396   0.19850   0.0000000000
H          H       0.45882   0.92397   0.13772   0.0000000000
H          H       0.48762   0.95115   0.33567   0.0000000000
H          H       0.40855   0.95577   0.39994   0.0000000000
H          H       0.22364   0.91347   0.31718   0.0000000000
H          H       0.30354   0.91596   0.24877   0.0000000000
H          H       0.47727   0.61982   0.87212   0.0000000000
H          H       0.46236   0.71745   0.83003   0.0000000000
H          H       0.27548   0.76672   0.91004   0.0000000000
H          H       0.28840   0.66478   0.95217   0.0000000000
H          H       0.78923   0.55469   0.80683   0.0000000000
H          H       0.66785   0.55901   0.76858   0.0000000000
H          H       0.56506   0.59737   0.89625   0.0000000000
H          H       0.68438   0.60503   0.93163   0.0000000000
C          C       0.53546   0.07780   0.69498   0.0000000000
C          C       0.53669   0.11323   0.73411   0.0000000000
C          C       0.47403   0.12826   0.75602   0.0000000000
C          C       0.40843   0.11157   0.73799   0.0000000000
C          C       0.34586   0.13976   0.75372   0.0000000000
C          C       0.28070   0.12941   0.73272   0.0000000000
C          C       0.27599   0.08741   0.69751   0.0000000000
C          C       0.21182   0.08084   0.67424   0.0000000000
C          C       0.20995   0.04635   0.63527   0.0000000000
C          C       0.27098   0.01390   0.62085   0.0000000000
C          C       0.33746   0.05522   0.68276   0.0000000000
C          C       0.40627   0.07022   0.70158   0.0000000000
C          C       0.81302   0.07419   0.60232   0.0000000000
C          C       0.26415   0.98617   0.57567   0.0000000000
C          C       0.27153   0.92193   0.56763   0.0000000000
C          C       0.27122   0.89763   0.52378   0.0000000000
C          C       0.26290   0.93606   0.48643   0.0000000000
C          C       0.25337   0.99982   0.49480   0.0000000000
C          C       0.25196   0.02383   0.53818   0.0000000000
C          C       0.27829   0.91027   0.44057   0.0000000000
C          C       0.44768   0.84775   0.63748   0.0000000000
C          C       0.43123   0.79394   0.61361   0.0000000000
C          C       0.41967   0.79788   0.56902   0.0000000000
C          C       0.42324   0.85386   0.54882   0.0000000000
C          C       0.42127   0.85685   0.50320   0.0000000000
C          C       0.42391   0.91408   0.48267   0.0000000000
C          C       0.42339   0.96979   0.50688   0.0000000000
C          C       0.41013   0.02677   0.48655   0.0000000000
C          C       0.39454   0.07919   0.51201   0.0000000000
C          C       0.40372   0.07758   0.55776   0.0000000000
C          C       0.43268   0.96820   0.55277   0.0000000000
C          C       0.43480   0.90846   0.57435   0.0000000000
C          C       0.60820   0.78705   0.78761   0.0000000000
C          C       0.37174   0.31119   0.65450   0.0000000000
N          N       0.46970   0.05138   0.68189   0.0000000000
N          N       0.33144   0.01611   0.64720   0.0000000000
N          N       0.43648   0.90624   0.61850   0.0000000000
N          N       0.43025   0.02318   0.57594   0.0000000000
N          N       0.84524   0.02034   0.60078   0.0000000000
N          N       0.27119   0.94258   0.40399   0.0000000000
N          N       0.57687   0.78136   0.82573   0.0000000000
N          N       0.42911   0.34609   0.65307   0.0000000000
C          C       0.51975   0.82292   0.32411   0.0000000000
C          C       0.55132   0.80698   0.28433   0.0000000000
C          C       0.50975   0.78498   0.24956   0.0000000000
C          C       0.43531   0.78123   0.25330   0.0000000000
C          C       0.40319   0.79528   0.29360   0.0000000000
C          C       0.44546   0.81768   0.32857   0.0000000000
C          C       0.12851   0.49102   0.06308   0.0000000000
C          C       0.12118   0.42634   0.06237   0.0000000000
C          C       0.10339   0.39400   0.02387   0.0000000000
C          C       0.09371   0.42388   0.98496   0.0000000000
C          C       0.09395   0.49121   0.98455   0.0000000000
C          C       0.11447   0.52349   0.02328   0.0000000000
C          C       0.08947   0.38542   0.94371   0.0000000000
C          C       0.12987   0.40240   0.90679   0.0000000000
C          C       0.13839   0.36249   0.87026   0.0000000000
C          C       0.09758   0.30769   0.86754   0.0000000000
C          C       0.05758   0.29041   0.90445   0.0000000000
C          C       0.05387   0.32858   0.94161   0.0000000000
C          C       0.54639   0.40030   0.31697   0.0000000000
C          C       0.56854   0.39902   0.27408   0.0000000000
C          C       0.51955   0.41408   0.24023   0.0000000000
C          C       0.44785   0.42852   0.24831   0.0000000000
C          C       0.42809   0.43564   0.29274   0.0000000000
C          C       0.47726   0.42002   0.32646   0.0000000000
C          C       0.40314   0.43606   0.21341   0.0000000000
C          C       0.42801   0.44413   0.17063   0.0000000000
C          C       0.38492   0.44434   0.13385   0.0000000000
C          C       0.31277   0.43108   0.13588   0.0000000000
C          C       0.28346   0.42222   0.17870   0.0000000000
C          C       0.32834   0.42412   0.21728   0.0000000000
C          C       0.38509   0.13458   0.58476   0.0000000000
C          C       0.43103   0.15172   0.61824   0.0000000000
C          C       0.42429   0.20677   0.64150   0.0000000000
C          C       0.37156   0.25018   0.63099   0.0000000000
C          C       0.32168   0.23392   0.59804   0.0000000000
C          C       0.32877   0.17668   0.57481   0.0000000000
C          C       0.74513   0.08017   0.62812   0.0000000000
C          C       0.73928   0.06631   0.67314   0.0000000000
C          C       0.67167   0.06656   0.69419   0.0000000000
C          C       0.60699   0.07602   0.67035   0.0000000000
C          C       0.61453   0.08906   0.62502   0.0000000000
C          C       0.68205   0.09218   0.60492   0.0000000000
H          H       0.58988   0.13001   0.74823   0.0000000000
H          H       0.47628   0.15432   0.78884   0.0000000000
H          H       0.34808   0.17146   0.78395   0.0000000000
H          H       0.23073   0.15525   0.74420   0.0000000000
H          H       0.16088   0.10373   0.68716   0.0000000000
H          H       0.15871   0.04432   0.61485   0.0000000000
H          H       0.83666   0.11594   0.58413   0.0000000000
H          H       0.27791   0.88818   0.59648   0.0000000000
H          H       0.27787   0.84542   0.51806   0.0000000000
H          H       0.24651   0.03377   0.46611   0.0000000000
H          H       0.24044   0.07570   0.54236   0.0000000000
H          H       0.29700   0.85972   0.43909   0.0000000000
H          H       0.42751   0.74709   0.63126   0.0000000000
H          H       0.40711   0.75402   0.54919   0.0000000000
H          H       0.41748   0.81217   0.48292   0.0000000000
H          H       0.42661   0.91696   0.44507   0.0000000000
H          H       0.41200   0.03068   0.44898   0.0000000000
H          H       0.37422   0.12354   0.49546   0.0000000000
H          H       0.66821   0.79638   0.78590   0.0000000000
H          H       0.32261   0.32759   0.67360   0.0000000000
H          H       0.61167   0.81187   0.27996   0.0000000000
H          H       0.53630   0.76967   0.21741   0.0000000000
H          H       0.34308   0.78858   0.29801   0.0000000000
H          H       0.41849   0.83167   0.36089   0.0000000000
H          H       0.12978   0.39820   0.09390   0.0000000000
H          H       0.09669   0.34118   0.02477   0.0000000000
H          H       0.07777   0.51745   0.95333   0.0000000000
H          H       0.11964   0.57643   0.02215   0.0000000000
H          H       0.15719   0.44990   0.90562   0.0000000000
H          H       0.17828   0.37473   0.84309   0.0000000000
H          H       0.02718   0.24432   0.90455   0.0000000000
H          H       0.02043   0.31201   0.97086   0.0000000000
H          H       0.62614   0.38587   0.26584   0.0000000000
H          H       0.53791   0.41485   0.20429   0.0000000000
H          H       0.37259   0.45396   0.30150   0.0000000000
H          H       0.45882   0.42397   0.36228   0.0000000000
H          H       0.48762   0.45115   0.16433   0.0000000000
H          H       0.40855   0.45577   0.10006   0.0000000000
H          H       0.22364   0.41347   0.18282   0.0000000000
H          H       0.30354   0.41596   0.25123   0.0000000000
H          H       0.47727   0.11982   0.62788   0.0000000000
H          H       0.46236   0.21745   0.66997   0.0000000000
H          H       0.27548   0.26672   0.58996   0.0000000000
H          H       0.28840   0.16478   0.54783   0.0000000000
H          H       0.78923   0.05469   0.69317   0.0000000000
H          H       0.66785   0.05901   0.73142   0.0000000000
H          H       0.56506   0.09737   0.60375   0.0000000000
H          H       0.68438   0.10503   0.56837   0.0000000000
C          C       0.03546   0.57780   0.69498   0.0000000000
C          C       0.03669   0.61323   0.73411   0.0000000000
C          C       0.97403   0.62826   0.75602   0.0000000000
C          C       0.90843   0.61157   0.73799   0.0000000000
C          C       0.84586   0.63976   0.75372   0.0000000000
C          C       0.78070   0.62941   0.73272   0.0000000000
C          C       0.77599   0.58741   0.69751   0.0000000000
C          C       0.71182   0.58084   0.67424   0.0000000000
C          C       0.70995   0.54635   0.63527   0.0000000000
C          C       0.77098   0.51390   0.62085   0.0000000000
C          C       0.83746   0.55522   0.68276   0.0000000000
C          C       0.90627   0.57022   0.70158   0.0000000000
C          C       0.31302   0.57419   0.60232   0.0000000000
C          C       0.76415   0.48617   0.57567   0.0000000000
C          C       0.77153   0.42193   0.56763   0.0000000000
C          C       0.77122   0.39763   0.52378   0.0000000000
C          C       0.76290   0.43606   0.48643   0.0000000000
C          C       0.75337   0.49982   0.49480   0.0000000000
C          C       0.75196   0.52383   0.53818   0.0000000000
C          C       0.77829   0.41027   0.44057   0.0000000000
C          C       0.94768   0.34775   0.63748   0.0000000000
C          C       0.93123   0.29394   0.61361   0.0000000000
C          C       0.91967   0.29788   0.56902   0.0000000000
C          C       0.92324   0.35386   0.54882   0.0000000000
C          C       0.92127   0.35685   0.50320   0.0000000000
C          C       0.92391   0.41408   0.48267   0.0000000000
C          C       0.92339   0.46979   0.50688   0.0000000000
C          C       0.91013   0.52677   0.48655   0.0000000000
C          C       0.89454   0.57919   0.51201   0.0000000000
C          C       0.90372   0.57758   0.55776   0.0000000000
C          C       0.93268   0.46820   0.55277   0.0000000000
C          C       0.93480   0.40846   0.57435   0.0000000000
C          C       0.10820   0.28705   0.78761   0.0000000000
C          C       0.87174   0.81119   0.65450   0.0000000000
N          N       0.96970   0.55138   0.68189   0.0000000000
N          N       0.83144   0.51611   0.64720   0.0000000000
N          N       0.93648   0.40624   0.61850   0.0000000000
N          N       0.93025   0.52318   0.57594   0.0000000000
N          N       0.34524   0.52034   0.60078   0.0000000000
N          N       0.77119   0.44258   0.40399   0.0000000000
N          N       0.07687   0.28136   0.82573   0.0000000000
N          N       0.92911   0.84609   0.65307   0.0000000000
C          C       0.01975   0.32292   0.32411   0.0000000000
C          C       0.05132   0.30698   0.28433   0.0000000000
C          C       0.00975   0.28498   0.24956   0.0000000000
C          C       0.93531   0.28123   0.25330   0.0000000000
C          C       0.90319   0.29528   0.29360   0.0000000000
C          C       0.94546   0.31768   0.32857   0.0000000000
C          C       0.62851   0.99102   0.06308   0.0000000000
C          C       0.62118   0.92634   0.06237   0.0000000000
C          C       0.60339   0.89400   0.02387   0.0000000000
C          C       0.59371   0.92388   0.98496   0.0000000000
C          C       0.59395   0.99121   0.98455   0.0000000000
C          C       0.61447   0.02349   0.02328   0.0000000000
C          C       0.58947   0.88542   0.94371   0.0000000000
C          C       0.62987   0.90240   0.90679   0.0000000000
C          C       0.63839   0.86249   0.87026   0.0000000000
C          C       0.59758   0.80769   0.86754   0.0000000000
C          C       0.55758   0.79041   0.90445   0.0000000000
C          C       0.55387   0.82858   0.94161   0.0000000000
C          C       0.04639   0.90030   0.31697   0.0000000000
C          C       0.06854   0.89902   0.27408   0.0000000000
C          C       0.01955   0.91408   0.24023   0.0000000000
C          C       0.94785   0.92852   0.24831   0.0000000000
C          C       0.92809   0.93564   0.29274   0.0000000000
C          C       0.97726   0.92002   0.32646   0.0000000000
C          C       0.90314   0.93606   0.21341   0.0000000000
C          C       0.92801   0.94413   0.17063   0.0000000000
C          C       0.88492   0.94434   0.13385   0.0000000000
C          C       0.81277   0.93108   0.13588   0.0000000000
C          C       0.78346   0.92222   0.17870   0.0000000000
C          C       0.82834   0.92412   0.21728   0.0000000000
C          C       0.88509   0.63458   0.58476   0.0000000000
C          C       0.93103   0.65172   0.61824   0.0000000000
C          C       0.92429   0.70677   0.64150   0.0000000000
C          C       0.87156   0.75018   0.63099   0.0000000000
C          C       0.82168   0.73392   0.59804   0.0000000000
C          C       0.82877   0.67668   0.57481   0.0000000000
C          C       0.24513   0.58017   0.62812   0.0000000000
C          C       0.23928   0.56631   0.67314   0.0000000000
C          C       0.17167   0.56656   0.69419   0.0000000000
C          C       0.10699   0.57602   0.67035   0.0000000000
C          C       0.11453   0.58906   0.62502   0.0000000000
C          C       0.18205   0.59218   0.60492   0.0000000000
H          H       0.08988   0.63001   0.74823   0.0000000000
H          H       0.97628   0.65432   0.78884   0.0000000000
H          H       0.84808   0.67146   0.78395   0.0000000000
H          H       0.73073   0.65525   0.74420   0.0000000000
H          H       0.66088   0.60373   0.68716   0.0000000000
H          H       0.65871   0.54432   0.61485   0.0000000000
H          H       0.33666   0.61594   0.58413   0.0000000000
H          H       0.77791   0.38818   0.59648   0.0000000000
H          H       0.77787   0.34542   0.51806   0.0000000000
H          H       0.74651   0.53377   0.46611   0.0000000000
H          H       0.74044   0.57570   0.54236   0.0000000000
H          H       0.79700   0.35972   0.43909   0.0000000000
H          H       0.92751   0.24709   0.63126   0.0000000000
H          H       0.90711   0.25402   0.54919   0.0000000000
H          H       0.91748   0.31217   0.48292   0.0000000000
H          H       0.92661   0.41696   0.44507   0.0000000000
H          H       0.91200   0.53068   0.44898   0.0000000000
H          H       0.87422   0.62354   0.49546   0.0000000000
H          H       0.16821   0.29638   0.78590   0.0000000000
H          H       0.82261   0.82759   0.67360   0.0000000000
H          H       0.11167   0.31187   0.27996   0.0000000000
H          H       0.03630   0.26967   0.21741   0.0000000000
H          H       0.84308   0.28858   0.29801   0.0000000000
H          H       0.91849   0.33167   0.36089   0.0000000000
H          H       0.62978   0.89820   0.09390   0.0000000000
H          H       0.59669   0.84118   0.02477   0.0000000000
H          H       0.57777   0.01745   0.95333   0.0000000000
H          H       0.61964   0.07643   0.02215   0.0000000000
H          H       0.65719   0.94990   0.90562   0.0000000000
H          H       0.67828   0.87473   0.84309   0.0000000000
H          H       0.52718   0.74432   0.90455   0.0000000000
H          H       0.52043   0.81201   0.97086   0.0000000000
H          H       0.12614   0.88587   0.26584   0.0000000000
H          H       0.03791   0.91485   0.20429   0.0000000000
H          H       0.87259   0.95396   0.30150   0.0000000000
H          H       0.95882   0.92397   0.36228   0.0000000000
H          H       0.98762   0.95115   0.16433   0.0000000000
H          H       0.90855   0.95577   0.10006   0.0000000000
H          H       0.72364   0.91347   0.18282   0.0000000000
H          H       0.80354   0.91596   0.25123   0.0000000000
H          H       0.97727   0.61982   0.62788   0.0000000000
H          H       0.96236   0.71745   0.66997   0.0000000000
H          H       0.77548   0.76672   0.58996   0.0000000000
H          H       0.78840   0.66478   0.54783   0.0000000000
H          H       0.28923   0.55469   0.69317   0.0000000000
H          H       0.16785   0.55901   0.73142   0.0000000000
H          H       0.06506   0.59737   0.60375   0.0000000000
H          H       0.18438   0.60503   0.56837   0.0000000000
C          C       0.46454   0.07780   0.30502   0.0000000000
C          C       0.46331   0.11323   0.26589   0.0000000000
C          C       0.52597   0.12826   0.24398   0.0000000000
C          C       0.59157   0.11157   0.26201   0.0000000000
C          C       0.65414   0.13976   0.24628   0.0000000000
C          C       0.71930   0.12941   0.26728   0.0000000000
C          C       0.72401   0.08741   0.30249   0.0000000000
C          C       0.78818   0.08084   0.32576   0.0000000000
C          C       0.79005   0.04635   0.36473   0.0000000000
C          C       0.72902   0.01390   0.37915   0.0000000000
C          C       0.66254   0.05522   0.31724   0.0000000000
C          C       0.59373   0.07022   0.29842   0.0000000000
C          C       0.18698   0.07419   0.39768   0.0000000000
C          C       0.73585   0.98617   0.42433   0.0000000000
C          C       0.72847   0.92193   0.43237   0.0000000000
C          C       0.72878   0.89763   0.47622   0.0000000000
C          C       0.73710   0.93606   0.51357   0.0000000000
C          C       0.74663   0.99982   0.50520   0.0000000000
C          C       0.74804   0.02383   0.46182   0.0000000000
C          C       0.72171   0.91027   0.55943   0.0000000000
C          C       0.55232   0.84775   0.36252   0.0000000000
C          C       0.56877   0.79394   0.38639   0.0000000000
C          C       0.58033   0.79788   0.43098   0.0000000000
C          C       0.57676   0.85386   0.45118   0.0000000000
C          C       0.57873   0.85685   0.49680   0.0000000000
C          C       0.57609   0.91408   0.51733   0.0000000000
C          C       0.57661   0.96979   0.49312   0.0000000000
C          C       0.58987   0.02677   0.51345   0.0000000000
C          C       0.60546   0.07919   0.48799   0.0000000000
C          C       0.59628   0.07758   0.44224   0.0000000000
C          C       0.56732   0.96820   0.44723   0.0000000000
C          C       0.56520   0.90846   0.42565   0.0000000000
C          C       0.39180   0.78705   0.21239   0.0000000000
C          C       0.62826   0.31119   0.34550   0.0000000000
N          N       0.53030   0.05138   0.31811   0.0000000000
N          N       0.66856   0.01611   0.35280   0.0000000000
N          N       0.56352   0.90624   0.38150   0.0000000000
N          N       0.56975   0.02318   0.42406   0.0000000000
N          N       0.15476   0.02034   0.39922   0.0000000000
N          N       0.72881   0.94258   0.59601   0.0000000000
N          N       0.42313   0.78136   0.17427   0.0000000000
N          N       0.57089   0.34609   0.34693   0.0000000000
C          C       0.48025   0.82292   0.67589   0.0000000000
C          C       0.44868   0.80698   0.71567   0.0000000000
C          C       0.49025   0.78498   0.75044   0.0000000000
C          C       0.56469   0.78123   0.74670   0.0000000000
C          C       0.59681   0.79528   0.70640   0.0000000000
C          C       0.55454   0.81768   0.67143   0.0000000000
C          C       0.87149   0.49102   0.93692   0.0000000000
C          C       0.87882   0.42634   0.93763   0.0000000000
C          C       0.89661   0.39400   0.97613   0.0000000000
C          C       0.90629   0.42388   0.01504   0.0000000000
C          C       0.90605   0.49121   0.01545   0.0000000000
C          C       0.88553   0.52349   0.97672   0.0000000000
C          C       0.91053   0.38542   0.05629   0.0000000000
C          C       0.87013   0.40240   0.09321   0.0000000000
C          C       0.86161   0.36249   0.12974   0.0000000000
C          C       0.90242   0.30769   0.13246   0.0000000000
C          C       0.94242   0.29041   0.09555   0.0000000000
C          C       0.94613   0.32858   0.05839   0.0000000000
C          C       0.45361   0.40030   0.68303   0.0000000000
C          C       0.43146   0.39902   0.72592   0.0000000000
C          C       0.48045   0.41408   0.75977   0.0000000000
C          C       0.55215   0.42852   0.75169   0.0000000000
C          C       0.57191   0.43564   0.70726   0.0000000000
C          C       0.52274   0.42002   0.67354   0.0000000000
C          C       0.59686   0.43606   0.78659   0.0000000000
C          C       0.57199   0.44413   0.82937   0.0000000000
C          C       0.61508   0.44434   0.86615   0.0000000000
C          C       0.68723   0.43108   0.86412   0.0000000000
C          C       0.71654   0.42222   0.82130   0.0000000000
C          C       0.67166   0.42412   0.78272   0.0000000000
C          C       0.61491   0.13458   0.41524   0.0000000000
C          C       0.56897   0.15172   0.38176   0.0000000000
C          C       0.57571   0.20677   0.35850   0.0000000000
C          C       0.62844   0.25018   0.36901   0.0000000000
C          C       0.67832   0.23392   0.40196   0.0000000000
C          C       0.67123   0.17668   0.42519   0.0000000000
C          C       0.25487   0.08017   0.37188   0.0000000000
C          C       0.26072   0.06631   0.32686   0.0000000000
C          C       0.32833   0.06656   0.30581   0.0000000000
C          C       0.39301   0.07602   0.32965   0.0000000000
C          C       0.38547   0.08906   0.37498   0.0000000000
C          C       0.31795   0.09218   0.39508   0.0000000000
H          H       0.41012   0.13001   0.25177   0.0000000000
H          H       0.52372   0.15432   0.21116   0.0000000000
H          H       0.65192   0.17146   0.21605   0.0000000000
H          H       0.76927   0.15525   0.25580   0.0000000000
H          H       0.83912   0.10373   0.31284   0.0000000000
H          H       0.84129   0.04432   0.38515   0.0000000000
H          H       0.16334   0.11594   0.41587   0.0000000000
H          H       0.72209   0.88818   0.40352   0.0000000000
H          H       0.72213   0.84542   0.48194   0.0000000000
H          H       0.75349   0.03377   0.53389   0.0000000000
H          H       0.75956   0.07570   0.45764   0.0000000000
H          H       0.70300   0.85972   0.56091   0.0000000000
H          H       0.57249   0.74709   0.36874   0.0000000000
H          H       0.59289   0.75402   0.45081   0.0000000000
H          H       0.58252   0.81217   0.51708   0.0000000000
H          H       0.57339   0.91696   0.55493   0.0000000000
H          H       0.58800   0.03068   0.55102   0.0000000000
H          H       0.62578   0.12354   0.50454   0.0000000000
H          H       0.33179   0.79638   0.21410   0.0000000000
H          H       0.67739   0.32759   0.32640   0.0000000000
H          H       0.38833   0.81187   0.72004   0.0000000000
H          H       0.46370   0.76967   0.78259   0.0000000000
H          H       0.65692   0.78858   0.70199   0.0000000000
H          H       0.58151   0.83167   0.63911   0.0000000000
H          H       0.87022   0.39820   0.90610   0.0000000000
H          H       0.90331   0.34118   0.97523   0.0000000000
H          H       0.92223   0.51745   0.04667   0.0000000000
H          H       0.88036   0.57643   0.97785   0.0000000000
H          H       0.84281   0.44990   0.09438   0.0000000000
H          H       0.82172   0.37473   0.15691   0.0000000000
H          H       0.97282   0.24432   0.09545   0.0000000000
H          H       0.97957   0.31201   0.02914   0.0000000000
H          H       0.37386   0.38587   0.73416   0.0000000000
H          H       0.46209   0.41485   0.79571   0.0000000000
H          H       0.62741   0.45396   0.69850   0.0000000000
H          H       0.54118   0.42397   0.63772   0.0000000000
H          H       0.51238   0.45115   0.83567   0.0000000000
H          H       0.59145   0.45577   0.89994   0.0000000000
H          H       0.77636   0.41347   0.81718   0.0000000000
H          H       0.69646   0.41596   0.74877   0.0000000000
H          H       0.52273   0.11982   0.37212   0.0000000000
H          H       0.53764   0.21745   0.33003   0.0000000000
H          H       0.72452   0.26672   0.41004   0.0000000000
H          H       0.71160   0.16478   0.45217   0.0000000000
H          H       0.21077   0.05469   0.30683   0.0000000000
H          H       0.33215   0.05901   0.26858   0.0000000000
H          H       0.43494   0.09737   0.39625   0.0000000000
H          H       0.31562   0.10503   0.43163   0.0000000000
C          C       0.96454   0.57780   0.30502   0.0000000000
C          C       0.96331   0.61323   0.26589   0.0000000000
C          C       0.02597   0.62826   0.24398   0.0000000000
C          C       0.09157   0.61157   0.26201   0.0000000000
C          C       0.15414   0.63976   0.24628   0.0000000000
C          C       0.21930   0.62941   0.26728   0.0000000000
C          C       0.22401   0.58741   0.30249   0.0000000000
C          C       0.28818   0.58084   0.32576   0.0000000000
C          C       0.29005   0.54635   0.36473   0.0000000000
C          C       0.22902   0.51390   0.37915   0.0000000000
C          C       0.16254   0.55522   0.31724   0.0000000000
C          C       0.09373   0.57022   0.29842   0.0000000000
C          C       0.68698   0.57419   0.39768   0.0000000000
C          C       0.23585   0.48617   0.42433   0.0000000000
C          C       0.22847   0.42193   0.43237   0.0000000000
C          C       0.22878   0.39763   0.47622   0.0000000000
C          C       0.23710   0.43606   0.51357   0.0000000000
C          C       0.24663   0.49982   0.50520   0.0000000000
C          C       0.24804   0.52383   0.46182   0.0000000000
C          C       0.22171   0.41027   0.55943   0.0000000000
C          C       0.05232   0.34775   0.36252   0.0000000000
C          C       0.06877   0.29394   0.38639   0.0000000000
C          C       0.08033   0.29788   0.43098   0.0000000000
C          C       0.07676   0.35386   0.45118   0.0000000000
C          C       0.07873   0.35685   0.49680   0.0000000000
C          C       0.07609   0.41408   0.51733   0.0000000000
C          C       0.07661   0.46979   0.49312   0.0000000000
C          C       0.08987   0.52677   0.51345   0.0000000000
C          C       0.10546   0.57919   0.48799   0.0000000000
C          C       0.09628   0.57758   0.44224   0.0000000000
C          C       0.06732   0.46820   0.44723   0.0000000000
C          C       0.06520   0.40846   0.42565   0.0000000000
C          C       0.89180   0.28705   0.21239   0.0000000000
C          C       0.12826   0.81119   0.34550   0.0000000000
N          N       0.03030   0.55138   0.31811   0.0000000000
N          N       0.16856   0.51611   0.35280   0.0000000000
N          N       0.06352   0.40624   0.38150   0.0000000000
N          N       0.06975   0.52318   0.42406   0.0000000000
N          N       0.65476   0.52034   0.39922   0.0000000000
N          N       0.22881   0.44258   0.59601   0.0000000000
N          N       0.92313   0.28136   0.17427   0.0000000000
N          N       0.07089   0.84609   0.34693   0.0000000000
C          C       0.98025   0.32292   0.67589   0.0000000000
C          C       0.94868   0.30698   0.71567   0.0000000000
C          C       0.99025   0.28498   0.75044   0.0000000000
C          C       0.06469   0.28123   0.74670   0.0000000000
C          C       0.09681   0.29528   0.70640   0.0000000000
C          C       0.05454   0.31768   0.67143   0.0000000000
C          C       0.37149   0.99102   0.93692   0.0000000000
C          C       0.37882   0.92634   0.93763   0.0000000000
C          C       0.39661   0.89400   0.97613   0.0000000000
C          C       0.40629   0.92388   0.01504   0.0000000000
C          C       0.40605   0.99121   0.01545   0.0000000000
C          C       0.38553   0.02349   0.97672   0.0000000000
C          C       0.41053   0.88542   0.05629   0.0000000000
C          C       0.37013   0.90240   0.09321   0.0000000000
C          C       0.36161   0.86249   0.12974   0.0000000000
C          C       0.40242   0.80769   0.13246   0.0000000000
C          C       0.44242   0.79041   0.09555   0.0000000000
C          C       0.44613   0.82858   0.05839   0.0000000000
C          C       0.95361   0.90030   0.68303   0.0000000000
C          C       0.93146   0.89902   0.72592   0.0000000000
C          C       0.98045   0.91408   0.75977   0.0000000000
C          C       0.05215   0.92852   0.75169   0.0000000000
C          C       0.07191   0.93564   0.70726   0.0000000000
C          C       0.02274   0.92002   0.67354   0.0000000000
C          C       0.09686   0.93606   0.78659   0.0000000000
C          C       0.07199   0.94413   0.82937   0.0000000000
C          C       0.11508   0.94434   0.86615   0.0000000000
C          C       0.18723   0.93108   0.86412   0.0000000000
C          C       0.21654   0.92222   0.82130   0.0000000000
C          C       0.17166   0.92412   0.78272   0.0000000000
C          C       0.11491   0.63458   0.41524   0.0000000000
C          C       0.06897   0.65172   0.38176   0.0000000000
C          C       0.07571   0.70677   0.35850   0.0000000000
C          C       0.12844   0.75018   0.36901   0.0000000000
C          C       0.17832   0.73392   0.40196   0.0000000000
C          C       0.17123   0.67668   0.42519   0.0000000000
C          C       0.75487   0.58017   0.37188   0.0000000000
C          C       0.76072   0.56631   0.32686   0.0000000000
C          C       0.82833   0.56656   0.30581   0.0000000000
C          C       0.89301   0.57602   0.32965   0.0000000000
C          C       0.88547   0.58906   0.37498   0.0000000000
C          C       0.81795   0.59218   0.39508   0.0000000000
H          H       0.91012   0.63001   0.25177   0.0000000000
H          H       0.02372   0.65432   0.21116   0.0000000000
H          H       0.15192   0.67146   0.21605   0.0000000000
H          H       0.26927   0.65525   0.25580   0.0000000000
H          H       0.33912   0.60373   0.31284   0.0000000000
H          H       0.34129   0.54432   0.38515   0.0000000000
H          H       0.66334   0.61594   0.41587   0.0000000000
H          H       0.22209   0.38818   0.40352   0.0000000000
H          H       0.22213   0.34542   0.48194   0.0000000000
H          H       0.25349   0.53377   0.53389   0.0000000000
H          H       0.25956   0.57570   0.45764   0.0000000000
H          H       0.20300   0.35972   0.56091   0.0000000000
H          H       0.07249   0.24709   0.36874   0.0000000000
H          H       0.09289   0.25402   0.45081   0.0000000000
H          H       0.08252   0.31217   0.51708   0.0000000000
H          H       0.07339   0.41696   0.55493   0.0000000000
H          H       0.08800   0.53068   0.55102   0.0000000000
H          H       0.12578   0.62354   0.50454   0.0000000000
H          H       0.83179   0.29638   0.21410   0.0000000000
H          H       0.17739   0.82759   0.32640   0.0000000000
H          H       0.88833   0.31187   0.72004   0.0000000000
H          H       0.96370   0.26967   0.78259   0.0000000000
H          H       0.15692   0.28858   0.70199   0.0000000000
H          H       0.08151   0.33167   0.63911   0.0000000000
H          H       0.37022   0.89820   0.90610   0.0000000000
H          H       0.40331   0.84118   0.97523   0.0000000000
H          H       0.42223   0.01745   0.04667   0.0000000000
H          H       0.38036   0.07643   0.97785   0.0000000000
H          H       0.34281   0.94990   0.09438   0.0000000000
H          H       0.32172   0.87473   0.15691   0.0000000000
H          H       0.47282   0.74432   0.09545   0.0000000000
H          H       0.47957   0.81201   0.02914   0.0000000000
H          H       0.87386   0.88587   0.73416   0.0000000000
H          H       0.96209   0.91485   0.79571   0.0000000000
H          H       0.12741   0.95396   0.69850   0.0000000000
H          H       0.04118   0.92397   0.63772   0.0000000000
H          H       0.01238   0.95115   0.83567   0.0000000000
H          H       0.09145   0.95577   0.89994   0.0000000000
H          H       0.27636   0.91347   0.81718   0.0000000000
H          H       0.19646   0.91596   0.74877   0.0000000000
H          H       0.02273   0.61982   0.37212   0.0000000000
H          H       0.03764   0.71745   0.33003   0.0000000000
H          H       0.22452   0.76672   0.41004   0.0000000000
H          H       0.21160   0.66478   0.45217   0.0000000000
H          H       0.71077   0.55469   0.30683   0.0000000000
H          H       0.83215   0.55901   0.26858   0.0000000000
H          H       0.93494   0.59737   0.39625   0.0000000000
H          H       0.81562   0.60503   0.43163   0.0000000000
