data_NUS-2
_audit_creation_date              0000-00-00
_audit_creation_method            'LanYouShi'
_symmetry_space_group_name_H-M    'P1'
_cell_length_a                    15.4975004
_cell_length_b                    15.4975004
_cell_length_c                    3.5999999
_cell_angle_alpha                 90.0000000
_cell_angle_beta                  90.0000000
_cell_angle_gamma                 120.0000000
loop_
_atom_site_label
_atom_site_type_symbol
_atom_site_fract_x
_atom_site_fract_y
_atom_site_fract_z
_atom_site_U_iso_or_equiv
_atom_site_adp_type
_atom_site_occupancy
        N1          N  0.0453378  0.5397865  0.5000000    0.00000       Uiso       1.00
        N2          N  0.4602135  0.5055512  0.5000000    0.00000       Uiso       1.00
        N3          N  0.4944487  0.9546622  0.5000000    0.00000       Uiso       1.00
        N4          N  0.9546623  0.4602135  0.5000000    0.00000       Uiso       1.00
        N5          N  0.5397865  0.4944487  0.5000000    0.00000       Uiso       1.00
        N6          N  0.5055513  0.0453378  0.5000000    0.00000       Uiso       1.00
        C1          C  0.1322891  0.5378112  0.5000000    0.00000       Uiso       1.00
        C2          C  0.4621888  0.5944779  0.5000000    0.00000       Uiso       1.00
        C3          C  0.4055221  0.8677109  0.5000000    0.00000       Uiso       1.00
        C4          C  0.8677109  0.4621888  0.5000000    0.00000       Uiso       1.00
        C5          C  0.5378112  0.4055221  0.5000000    0.00000       Uiso       1.00
        C6          C  0.5944779  0.1322891  0.5000000    0.00000       Uiso       1.00
        H1          H  0.1306370  0.4634388  0.5000000    0.00000       Uiso       1.00
        H2          H  0.5365612  0.6671982  0.5000000    0.00000       Uiso       1.00
        H3          H  0.3328018  0.8693630  0.5000000    0.00000       Uiso       1.00
        H4          H  0.8693630  0.5365612  0.5000000    0.00000       Uiso       1.00
        H5          H  0.4634388  0.3328018  0.5000000    0.00000       Uiso       1.00
        H6          H  0.6671982  0.1306370  0.5000000    0.00000       Uiso       1.00
        H7          H  0.0469463  0.6122016  0.5000000    0.00000       Uiso       1.00
        H8          H  0.3877983  0.4347446  0.5000000    0.00000       Uiso       1.00
        H9          H  0.5652553  0.9530537  0.5000000    0.00000       Uiso       1.00
       H10          H  0.9530537  0.3877983  0.5000000    0.00000       Uiso       1.00
       H11          H  0.6122017  0.5652553  0.5000000    0.00000       Uiso       1.00
       H12          H  0.4347446  0.0469463  0.5000000    0.00000       Uiso       1.00
        C1          C  0.2994159  0.5642670  0.5000000    0.00000       Uiso       1.00
        C2          C  0.2285230  0.5966145  0.5000000    0.00000       Uiso       1.00
        C3          C  0.4357330  0.7351489  0.5000000    0.00000       Uiso       1.00
        C4          C  0.4033855  0.6319085  0.5000000    0.00000       Uiso       1.00
        C5          C  0.2648511  0.7005840  0.5000000    0.00000       Uiso       1.00
        C6          C  0.3680914  0.7714769  0.5000000    0.00000       Uiso       1.00
        C7          C  0.7005840  0.4357330  0.5000000    0.00000       Uiso       1.00
        C8          C  0.7714769  0.4033855  0.5000000    0.00000       Uiso       1.00
        C9          C  0.5642670  0.2648511  0.5000000    0.00000       Uiso       1.00
       C10          C  0.5966144  0.3680914  0.5000000    0.00000       Uiso       1.00
       C11          C  0.7351489  0.2994160  0.5000000    0.00000       Uiso       1.00
       C12          C  0.6319085  0.2285230  0.5000000    0.00000       Uiso       1.00
        O1          O  0.2730197  0.4801492  0.5000000    0.00000       Uiso       1.00
        O2          O  0.5198509  0.7928705  0.5000000    0.00000       Uiso       1.00
        O3          O  0.2071295  0.7269803  0.5000000    0.00000       Uiso       1.00
        O4          O  0.7269803  0.5198509  0.5000000    0.00000       Uiso       1.00
        O5          O  0.4801491  0.2071295  0.5000000    0.00000       Uiso       1.00
        O6          O  0.7928705  0.2730197  0.5000000    0.00000       Uiso       1.00
