data_crystal
 
_cell_length_a    39.45090
_cell_length_b    39.45080
_cell_length_c    6.80000
_cell_angle_alpha 90.00000
_cell_angle_beta  90.00000
_cell_angle_gamma 120.00010
 
_symmetry_space_group_name_Hall 'P 1'
_symmetry_space_group_name_H-M  'P 1'
 
loop_
_symmetry_equiv_pos_as_xyz
 'x,y,z' 
 
loop_
_atom_site_label
_atom_site_type_symbol
_atom_site_fract_x
_atom_site_fract_y
_atom_site_fract_z
_atom_site_charge
C          C       0.38248   0.44757   0.73856   0.0000000000
N          N       0.41400   0.43653   0.73886   0.0000000000
C          C       0.45656   0.46802   0.73737   0.0000000000
C          C       0.48853   0.45651   0.73465   0.0000000000
C          C       0.53200   0.48852   0.73206   0.0000000000
H          H       0.39085   0.47972   0.73791   0.0000000000
H          H       0.48003   0.42440   0.73440   0.0000000000
H          H       0.55573   0.48002   0.72972   0.0000000000
C          C       0.61754   0.55244   0.73227   0.0000000000
N          N       0.58600   0.56347   0.73238   0.0000000000
C          C       0.54343   0.53198   0.73308   0.0000000000
C          C       0.51146   0.54350   0.73565   0.0000000000
C          C       0.46799   0.51148   0.73806   0.0000000000
H          H       0.60920   0.52030   0.73196   0.0000000000
H          H       0.51996   0.57559   0.73613   0.0000000000
H          H       0.44426   0.51998   0.74041   0.0000000000
C          C       0.05248   0.43500   0.73808   0.0000000000
N          N       0.06353   0.47756   0.73890   0.0000000000
C          C       0.03204   0.48863   0.73725   0.0000000000
C          C       0.04355   0.53211   0.73508   0.0000000000
C          C       0.01154   0.54358   0.73234   0.0000000000
H          H       0.02034   0.41121   0.73692   0.0000000000
H          H       0.07565   0.55571   0.73534   0.0000000000
H          H       0.02005   0.57580   0.73040   0.0000000000
C          C       0.94762   0.56519   0.73221   0.0000000000
N          N       0.93660   0.52263   0.73181   0.0000000000
C          C       0.96808   0.51155   0.73265   0.0000000000
C          C       0.95656   0.46805   0.73469   0.0000000000
C          C       0.98858   0.45660   0.73725   0.0000000000
H          H       0.97977   0.58900   0.73242   0.0000000000
H          H       0.92447   0.44446   0.73465   0.0000000000
H          H       0.98008   0.42437   0.73921   0.0000000000
C          C       0.06506   0.11757   0.74462   0.0000000000
N          N       0.02249   0.08605   0.74477   0.0000000000
C          C       0.01143   0.04350   0.74260   0.0000000000
C          C       0.96795   0.01153   0.73972   0.0000000000
C          C       0.95649   0.96806   0.73645   0.0000000000
H          H       0.08884   0.10921   0.74359   0.0000000000
H          H       0.94435   0.02003   0.73987   0.0000000000
H          H       0.92426   0.94434   0.73398   0.0000000000
C          C       0.93487   0.88252   0.73527   0.0000000000
N          N       0.97744   0.91406   0.73555   0.0000000000
C          C       0.98852   0.95663   0.73691   0.0000000000
C          C       0.03201   0.98860   0.73964   0.0000000000
C          C       0.04346   0.03207   0.74276   0.0000000000
H          H       0.91106   0.89086   0.73536   0.0000000000
H          H       0.05560   0.98010   0.73972   0.0000000000
H          H       0.07569   0.05579   0.74521   0.0000000000
C          C       0.68344   0.61971   0.73288   0.0000000000
C          C       0.72407   0.64159   0.73306   0.0000000000
H          H       0.66681   0.63476   0.73303   0.0000000000
H          H       0.73818   0.67320   0.73336   0.0000000000
C          C       0.88035   0.56382   0.73223   0.0000000000
C          C       0.85847   0.58257   0.73242   0.0000000000
H          H       0.86530   0.53214   0.73194   0.0000000000
H          H       0.82686   0.56507   0.73228   0.0000000000
C          C       0.93624   0.81662   0.73463   0.0000000000
C          C       0.91749   0.77600   0.73425   0.0000000000
H          H       0.96792   0.83325   0.73477   0.0000000000
H          H       0.93499   0.76189   0.73411   0.0000000000
C          C       0.87029   0.81408   0.73464   0.0000000000
C          C       0.85080   0.77342   0.73426   0.0000000000
H          H       0.85338   0.82882   0.73479   0.0000000000
H          H       0.81913   0.75741   0.73413   0.0000000000
C          C       0.94375   0.62977   0.73283   0.0000000000
C          C       0.92259   0.64926   0.73303   0.0000000000
H          H       0.97542   0.64669   0.73298   0.0000000000
H          H       0.93825   0.68093   0.73333   0.0000000000
C          C       0.68599   0.55631   0.73227   0.0000000000
C          C       0.72664   0.57748   0.73245   0.0000000000
H          H       0.67124   0.52464   0.73197   0.0000000000
H          H       0.74265   0.56182   0.73228   0.0000000000
C          C       0.85271   0.70789   0.73363   0.0000000000
C          C       0.91342   0.83693   0.73484   0.0000000000
C          C       0.87347   0.75200   0.73404   0.0000000000
C          C       0.79217   0.64491   0.73306   0.0000000000
C          C       0.66313   0.57658   0.73247   0.0000000000
C          C       0.74806   0.62156   0.73286   0.0000000000
C          C       0.85515   0.64735   0.73305   0.0000000000
C          C       0.92348   0.58664   0.73243   0.0000000000
C          C       0.87850   0.62660   0.73284   0.0000000000
C          C       0.87406   0.68828   0.73343   0.0000000000
C          C       0.81178   0.68588   0.73344   0.0000000000
C          C       0.81419   0.62600   0.73286   0.0000000000
H          H       0.79476   0.70050   0.73359   0.0000000000
H          H       0.79957   0.59436   0.73257   0.0000000000
H          H       0.90570   0.70530   0.73358   0.0000000000
C          C       0.31656   0.38032   0.73979   0.0000000000
C          C       0.27594   0.35846   0.74015   0.0000000000
H          H       0.33318   0.36525   0.74014   0.0000000000
H          H       0.26181   0.32685   0.74077   0.0000000000
C          C       0.11974   0.43634   0.73820   0.0000000000
C          C       0.14160   0.41757   0.73864   0.0000000000
H          H       0.13480   0.46801   0.73759   0.0000000000
H          H       0.17321   0.43505   0.73835   0.0000000000
C          C       0.06372   0.18349   0.74327   0.0000000000
C          C       0.08249   0.22412   0.74247   0.0000000000
H          H       0.03205   0.16688   0.74354   0.0000000000
H          H       0.06500   0.23824   0.74215   0.0000000000
C          C       0.12966   0.18601   0.74337   0.0000000000
C          C       0.14916   0.22666   0.74257   0.0000000000
H          H       0.14656   0.17124   0.74371   0.0000000000
H          H       0.18083   0.24266   0.74231   0.0000000000
C          C       0.05632   0.37040   0.73942   0.0000000000
C          C       0.07747   0.35090   0.73986   0.0000000000
H          H       0.02465   0.35350   0.73969   0.0000000000
H          H       0.06180   0.31923   0.74047   0.0000000000
C          C       0.31405   0.44374   0.73848   0.0000000000
C          C       0.27340   0.42259   0.73882   0.0000000000
H          H       0.32881   0.47540   0.73787   0.0000000000
H          H       0.25740   0.43826   0.73847   0.0000000000
C          C       0.14729   0.29221   0.74122   0.0000000000
C          C       0.08653   0.16316   0.74374   0.0000000000
C          C       0.12652   0.24810   0.74208   0.0000000000
C          C       0.20785   0.35517   0.74006   0.0000000000
C          C       0.33689   0.42345   0.73895   0.0000000000
C          C       0.25196   0.37851   0.73969   0.0000000000
C          C       0.14489   0.35277   0.73998   0.0000000000
C          C       0.07661   0.41353   0.73857   0.0000000000
C          C       0.12155   0.37354   0.73950   0.0000000000
C          C       0.12595   0.31184   0.74077   0.0000000000
C          C       0.18822   0.31421   0.74086   0.0000000000
C          C       0.18585   0.37410   0.73962   0.0000000000
H          H       0.20523   0.29957   0.74120   0.0000000000
H          H       0.20048   0.40574   0.73901   0.0000000000
H          H       0.09431   0.29483   0.74105   0.0000000000
C          C       0.38248   0.44757   1.23856   0.0000000000
N          N       0.41400   0.43653   1.23885   0.0000000000
C          C       0.45656   0.46802   1.23737   0.0000000000
C          C       0.48853   0.45651   1.23465   0.0000000000
C          C       0.53200   0.48852   1.23206   0.0000000000
H          H       0.39085   0.47972   1.23791   0.0000000000
H          H       0.48003   0.42440   1.23440   0.0000000000
H          H       0.55573   0.48002   1.22972   0.0000000000
C          C       0.61754   0.55244   1.23227   0.0000000000
N          N       0.58600   0.56347   1.23238   0.0000000000
C          C       0.54343   0.53198   1.23307   0.0000000000
C          C       0.51146   0.54350   1.23565   0.0000000000
C          C       0.46799   0.51148   1.23806   0.0000000000
H          H       0.60920   0.52030   1.23196   0.0000000000
H          H       0.51996   0.57559   1.23612   0.0000000000
H          H       0.44426   0.51998   1.24041   0.0000000000
C          C       0.05248   0.43500   1.23808   0.0000000000
N          N       0.06353   0.47756   1.23890   0.0000000000
C          C       0.03204   0.48863   1.23725   0.0000000000
C          C       0.04355   0.53211   1.23507   0.0000000000
C          C       0.01154   0.54358   1.23234   0.0000000000
H          H       0.02034   0.41121   1.23692   0.0000000000
H          H       0.07565   0.55571   1.23534   0.0000000000
H          H       0.02005   0.57580   1.23039   0.0000000000
C          C       0.94762   0.56519   1.23221   0.0000000000
N          N       0.93660   0.52263   1.23181   0.0000000000
C          C       0.96808   0.51155   1.23266   0.0000000000
C          C       0.95656   0.46805   1.23469   0.0000000000
C          C       0.98858   0.45660   1.23725   0.0000000000
H          H       0.97977   0.58900   1.23242   0.0000000000
H          H       0.92447   0.44446   1.23465   0.0000000000
H          H       0.98008   0.42437   1.23920   0.0000000000
C          C       0.06506   0.11757   1.24463   0.0000000000
N          N       0.02249   0.08605   1.24476   0.0000000000
C          C       0.01143   0.04350   1.24259   0.0000000000
C          C       0.96795   0.01153   1.23972   0.0000000000
C          C       0.95649   0.96806   1.23645   0.0000000000
H          H       0.08884   0.10921   1.24359   0.0000000000
H          H       0.94435   0.02003   1.23987   0.0000000000
H          H       0.92426   0.94434   1.23398   0.0000000000
C          C       0.93487   0.88252   1.23526   0.0000000000
N          N       0.97744   0.91406   1.23554   0.0000000000
C          C       0.98852   0.95663   1.23691   0.0000000000
C          C       0.03201   0.98860   1.23965   0.0000000000
C          C       0.04346   0.03207   1.24276   0.0000000000
H          H       0.91106   0.89086   1.23535   0.0000000000
H          H       0.05560   0.98010   1.23972   0.0000000000
H          H       0.07569   0.05579   1.24521   0.0000000000
C          C       0.68344   0.61971   1.23287   0.0000000000
C          C       0.72407   0.64159   1.23306   0.0000000000
H          H       0.66681   0.63476   1.23303   0.0000000000
H          H       0.73818   0.67320   1.23336   0.0000000000
C          C       0.88035   0.56382   1.23223   0.0000000000
C          C       0.85847   0.58257   1.23243   0.0000000000
H          H       0.86530   0.53214   1.23194   0.0000000000
H          H       0.82686   0.56507   1.23228   0.0000000000
C          C       0.93624   0.81662   1.23463   0.0000000000
C          C       0.91749   0.77600   1.23425   0.0000000000
H          H       0.96792   0.83325   1.23477   0.0000000000
H          H       0.93499   0.76189   1.23411   0.0000000000
C          C       0.87029   0.81408   1.23464   0.0000000000
C          C       0.85080   0.77342   1.23426   0.0000000000
H          H       0.85338   0.82882   1.23479   0.0000000000
H          H       0.81913   0.75741   1.23412   0.0000000000
C          C       0.94375   0.62977   1.23283   0.0000000000
C          C       0.92259   0.64926   1.23303   0.0000000000
H          H       0.97542   0.64669   1.23298   0.0000000000
H          H       0.93825   0.68093   1.23333   0.0000000000
C          C       0.68599   0.55631   1.23227   0.0000000000
C          C       0.72664   0.57748   1.23245   0.0000000000
H          H       0.67124   0.52464   1.23197   0.0000000000
H          H       0.74265   0.56182   1.23229   0.0000000000
C          C       0.85271   0.70789   1.23363   0.0000000000
C          C       0.91342   0.83693   1.23483   0.0000000000
C          C       0.87347   0.75200   1.23405   0.0000000000
C          C       0.79217   0.64491   1.23306   0.0000000000
C          C       0.66313   0.57658   1.23247   0.0000000000
C          C       0.74806   0.62156   1.23286   0.0000000000
C          C       0.85515   0.64735   1.23305   0.0000000000
C          C       0.92348   0.58664   1.23243   0.0000000000
C          C       0.87850   0.62660   1.23284   0.0000000000
C          C       0.87406   0.68828   1.23343   0.0000000000
C          C       0.81178   0.68588   1.23344   0.0000000000
C          C       0.81419   0.62600   1.23286   0.0000000000
H          H       0.79476   0.70050   1.23359   0.0000000000
H          H       0.79957   0.59436   1.23257   0.0000000000
H          H       0.90570   0.70530   1.23358   0.0000000000
C          C       0.31656   0.38032   1.23979   0.0000000000
C          C       0.27594   0.35846   1.24015   0.0000000000
H          H       0.33318   0.36525   1.24014   0.0000000000
H          H       0.26181   0.32685   1.24076   0.0000000000
C          C       0.11974   0.43634   1.23820   0.0000000000
C          C       0.14160   0.41757   1.23863   0.0000000000
H          H       0.13480   0.46801   1.23758   0.0000000000
H          H       0.17321   0.43505   1.23835   0.0000000000
C          C       0.06372   0.18349   1.24327   0.0000000000
C          C       0.08249   0.22412   1.24247   0.0000000000
H          H       0.03205   0.16688   1.24354   0.0000000000
H          H       0.06500   0.23824   1.24215   0.0000000000
C          C       0.12966   0.18601   1.24337   0.0000000000
C          C       0.14916   0.22666   1.24257   0.0000000000
H          H       0.14656   0.17124   1.24371   0.0000000000
H          H       0.18083   0.24266   1.24232   0.0000000000
C          C       0.05632   0.37040   1.23942   0.0000000000
C          C       0.07747   0.35090   1.23986   0.0000000000
H          H       0.02465   0.35350   1.23969   0.0000000000
H          H       0.06180   0.31923   1.24047   0.0000000000
C          C       0.31405   0.44374   1.23848   0.0000000000
C          C       0.27340   0.42259   1.23882   0.0000000000
H          H       0.32881   0.47540   1.23786   0.0000000000
H          H       0.25740   0.43826   1.23847   0.0000000000
C          C       0.14729   0.29221   1.24122   0.0000000000
C          C       0.08653   0.16316   1.24374   0.0000000000
C          C       0.12652   0.24810   1.24208   0.0000000000
C          C       0.20785   0.35517   1.24006   0.0000000000
C          C       0.33689   0.42345   1.23895   0.0000000000
C          C       0.25196   0.37851   1.23968   0.0000000000
C          C       0.14489   0.35277   1.23998   0.0000000000
C          C       0.07661   0.41353   1.23857   0.0000000000
C          C       0.12155   0.37354   1.23950   0.0000000000
C          C       0.12595   0.31184   1.24077   0.0000000000
C          C       0.18822   0.31421   1.24086   0.0000000000
C          C       0.18585   0.37410   1.23962   0.0000000000
H          H       0.20523   0.29957   1.24120   0.0000000000
H          H       0.20048   0.40574   1.23901   0.0000000000
H          H       0.09431   0.29483   1.24105   0.0000000000
