data_crystal

_cell_length_a    26.23240
_cell_length_b    25.80400
_cell_length_c    13.49400
_cell_angle_alpha 90.00000
_cell_angle_beta  90.00000
_cell_angle_gamma 101.73700

_space_group_name_Hall 'P 1'
_space_group_name_H-M_alt  'P 1'

loop_
_symmetry_equiv_pos_as_xyz
'x,y,z' 

loop_
_atom_site_label
_atom_site_type_symbol
_atom_site_fract_x
_atom_site_fract_y
_atom_site_fract_z
C          C       0.08179   0.10241   0.25000 
C          C       0.58902   0.59121   0.25000 
C          C       0.99784   0.01314   0.25000 
C          C       0.49061   0.52435   0.25000 
C          C       0.49503   0.57931   0.25000 
C          C       0.05214   0.00293   0.25000 
C          C       0.58460   0.53625   0.25000 
C          C       0.02749   0.11262   0.25000 
C          C       0.52985   0.44426   0.25000 
C          C       0.92581   0.06129   0.25000 
C          C       0.54978   0.67129   0.25000 
C          C       0.15382   0.05427   0.25000 
C          C       0.54430   0.61319   0.25000 
C          C       0.09474   0.04781   0.25000 
C          C       0.53533   0.50236   0.25000 
C          C       0.98489   0.06774   0.25000 
N          N       0.50914   0.69280   0.25000 
N          N       0.17933   0.01003   0.25000 
N          N       0.57049   0.42275   0.25000 
N          N       0.90030   0.10552   0.25000 
N          N       0.48185   0.11363   0.25000 
N          N       0.59778   0.00192   0.25000 
H          H       0.50604   0.09032   0.25000 
H          H       0.57359   0.02523   0.25000 
C          C       0.43013   0.09634   0.25000 
C          C       0.58291   0.94910   0.25000 
C          C       0.64950   0.01922   0.25000 
C          C       0.49672   0.16646   0.25000 
C          C       0.40916   0.14167   0.25000 
C          C       0.62879   0.92998   0.25000 
C          C       0.67048   0.97388   0.25000 
C          C       0.45084   0.18557   0.25000 
H          H       0.36823   0.14302   0.25000 
H          H       0.63191   0.88884   0.25000 
H          H       0.71140   0.97253   0.25000 
H          H       0.44772   0.22671   0.25000 
N          N       0.47373   0.98818   0.25000 
N          N       0.60591   0.12738   0.25000 
C          C       0.42073   0.99224   0.25000 
C          C       0.48010   0.93502   0.25000 
C          C       0.65890   0.12332   0.25000 
C          C       0.59953   0.18053   0.25000 
C          C       0.39223   0.93668   0.25000 
C          C       0.42628   0.90387   0.25000 
C          C       0.68740   0.17887   0.25000 
C          C       0.65335   0.21168   0.25000 
H          H       0.35033   0.92369   0.25000 
H          H       0.41527   0.86113   0.25000 
H          H       0.72930   0.19186   0.25000 
H          H       0.66436   0.25443   0.25000 
C          C       0.40057   0.03811   0.25000 
C          C       0.52648   0.91677   0.25000 
C          C       0.67906   0.07744   0.25000 
C          C       0.55315   0.19879   0.25000 
C          C       0.34339   0.03086   0.25000 
C          C       0.52186   0.85889   0.25000 
C          C       0.73624   0.08469   0.25000 
C          C       0.55777   0.25666   0.25000 
C          C       0.31609   0.02733   0.16013 
C          C       0.51976   0.83128   0.33987 
C          C       0.76354   0.08822   0.16013 
C          C       0.55987   0.28427   0.33987 
C          C       0.31609   0.02733   0.33987 
C          C       0.51976   0.83128   0.16013 
C          C       0.76354   0.08822   0.33987 
C          C       0.55987   0.28427   0.16013 
H          H       0.33697   0.02972   0.09051 
H          H       0.52127   0.85238   0.40950 
H          H       0.74266   0.08583   0.09051 
H          H       0.55836   0.26318   0.40950 
H          H       0.33697   0.02972   0.40948 
H          H       0.52127   0.85238   0.09051 
H          H       0.74266   0.08583   0.40948 
H          H       0.55836   0.26318   0.09051 
C          C       0.26176   0.02024   0.16028 
C          C       0.51552   0.77634   0.33970 
C          C       0.81787   0.09532   0.16028 
C          C       0.56411   0.33922   0.33970 
C          C       0.26176   0.02024   0.33972 
C          C       0.51552   0.77634   0.16030 
C          C       0.81787   0.09532   0.33972 
C          C       0.56411   0.33922   0.16030 
H          H       0.24052   0.01694   0.09113 
H          H       0.51367   0.75484   0.40880 
H          H       0.83911   0.09862   0.09113 
H          H       0.56596   0.36072   0.40880 
H          H       0.24052   0.01694   0.40886 
H          H       0.51367   0.75484   0.09120 
H          H       0.83911   0.09862   0.40886 
H          H       0.56596   0.36072   0.09120 
C          C       0.23459   0.01691   0.25000 
C          C       0.51362   0.74887   0.25000 
C          C       0.84504   0.09865   0.25000 
C          C       0.56601   0.36669   0.25000 
H          H       0.11356   0.13825   0.25000 
H          H       0.62738   0.61658   0.25000 
H          H       0.46005   0.59553   0.25000 
H          H       0.49111   0.41946   0.25000 
O          O       0.04763   0.94721   0.25000 
H          H       0.89970   0.02149   0.25000 
C          C       0.08021   0.91046   0.25000 
O          O       0.12703   0.92240   0.25000 
H          H       0.45225   0.49897   0.25000 
H          H       0.61958   0.52003   0.25000 
H          H       0.58853   0.69609   0.25000 
O          O       0.03200   0.16834   0.25000 
H          H       0.17993   0.09406   0.25000 
C          C       0.21409   0.61742   0.25000 
C          C       0.19159   0.56336   0.25000 
C          C       0.13773   0.54713   0.25000 
C          C       0.10684   0.58474   0.25000 
C          C       0.12786   0.63863   0.25000 
C          C       0.18253   0.65528   0.25000 
C          C       0.09017   0.67459   0.25000 
C          C       0.10405   0.72723   0.25000 
C          C       0.01153   0.74597   0.25000 
C          C       0.06637   0.76297   0.25000 
C          C       0.00152   0.83720   0.25000 
C          C       0.05586   0.85408   0.25000 
C          C       0.08757   0.81684   0.25000 
H          H       0.25597   0.62993   0.25000 
H          H       0.21569   0.53404   0.25000 
H          H       0.11956   0.50552   0.25000 
H          H      -0.00534   0.53329   0.25001 
H          H       0.12954   0.82993   0.25000 
C          C      -0.04598   0.52148   0.25000 
C          C      -0.03054   0.43122   0.25000 
C          C       0.05018   0.36430   0.25000 
C          C      -0.00426   0.34394   0.25000 
C          C       0.08503   0.33026   0.25000 
C          C       0.06652   0.27600   0.25000 
C          C       0.01279   0.25483   0.25000 
H          H       0.12657   0.34599   0.25000 
H          H       0.09471   0.25050   0.25000 
H          H       0.01009   0.45016   0.25000 
H          H       0.04922   0.65625   0.25000 
H          H       0.14494   0.74574   0.25000 
C          C      -0.00537   0.19685   0.25000 
C          C      -0.02256   0.28888   0.25000 
C          C      -0.04371   0.37821   0.25000 
C          C      -0.06772   0.46762   0.25000 
C          C      -0.12229   0.45169   0.25000 
C          C      -0.15325   0.49019   0.25000 
C          C      -0.13008   0.54414   0.25000 
C          C      -0.07619   0.55967   0.25000 
C          C      -0.02047   0.78325   0.25000 
O          O      -0.05119   0.17577   0.25000 
H          H      -0.02376   0.86559   0.25000 
H          H      -0.06242   0.77034   0.25000 
H          H      -0.00703   0.70468   0.25000 
H          H      -0.05745   0.60117   0.25001 
H          H      -0.15366   0.57394   0.25000 
H          H      -0.19516   0.47831   0.25000 
H          H      -0.14108   0.41041   0.25000 
H          H      -0.08437   0.35885   0.25000 
H          H      -0.06393   0.27267   0.25000 
H          H       0.06689   0.40599   0.25000 
H          H       0.06627   0.57248   0.25000 
H          H       0.20114   0.69659   0.25000 
H          H       0.96186  -0.01781   0.25000 
C          C       0.08179   0.10241   0.75000 
C          C       0.58902   0.59121   0.75000 
C          C       0.99784   0.01314   0.75000 
C          C       0.49061   0.52435   0.75000 
C          C       0.49503   0.57931   0.75000 
C          C       0.05214   0.00293   0.75000 
C          C       0.58460   0.53625   0.75000 
C          C       0.02749   0.11262   0.75000 
C          C       0.52985   0.44426   0.75000 
C          C       0.92581   0.06129   0.75000 
C          C       0.54978   0.67129   0.75000 
C          C       0.15382   0.05427   0.75000 
C          C       0.54430   0.61319   0.75000 
C          C       0.09474   0.04781   0.75000 
C          C       0.53533   0.50236   0.75000 
C          C       0.98489   0.06774   0.75000 
N          N       0.50914   0.69280   0.75000 
N          N       0.17933   0.01003   0.75000 
N          N       0.57049   0.42275   0.75000 
N          N       0.90030   0.10552   0.75000 
N          N       0.48185   0.11363   0.75000 
N          N       0.59778   0.00192   0.75000 
H          H       0.50604   0.09032   0.75000 
H          H       0.57359   0.02523   0.75000 
C          C       0.43013   0.09634   0.75000 
C          C       0.58291   0.94910   0.75000 
C          C       0.64950   0.01922   0.75000 
C          C       0.49672   0.16646   0.75000 
C          C       0.40916   0.14167   0.75000 
C          C       0.62879   0.92998   0.75000 
C          C       0.67048   0.97388   0.75000 
C          C       0.45084   0.18557   0.75000 
H          H       0.36823   0.14302   0.75000 
H          H       0.63191   0.88884   0.75000 
H          H       0.71140   0.97253   0.75000 
H          H       0.44772   0.22671   0.75000 
N          N       0.47373   0.98818   0.75000 
N          N       0.60591   0.12738   0.75000 
C          C       0.42073   0.99224   0.75000 
C          C       0.48010   0.93502   0.75000 
C          C       0.65890   0.12332   0.75000 
C          C       0.59953   0.18053   0.75000 
C          C       0.39223   0.93668   0.75000 
C          C       0.42628   0.90387   0.75000 
C          C       0.68740   0.17887   0.75000 
C          C       0.65335   0.21168   0.75000 
H          H       0.35033   0.92369   0.75000 
H          H       0.41527   0.86113   0.75000 
H          H       0.72930   0.19186   0.75000 
H          H       0.66436   0.25443   0.75000 
C          C       0.40057   0.03811   0.75000 
C          C       0.52648   0.91677   0.75000 
C          C       0.67906   0.07744   0.75000 
C          C       0.55315   0.19879   0.75000 
C          C       0.34339   0.03086   0.75000 
C          C       0.52186   0.85889   0.75000 
C          C       0.73624   0.08469   0.75000 
C          C       0.55777   0.25666   0.75000 
C          C       0.31609   0.02733   0.66013 
C          C       0.51976   0.83128   0.83986 
C          C       0.76354   0.08822   0.66013 
C          C       0.55987   0.28427   0.83986 
C          C       0.31609   0.02733   0.83987 
C          C       0.51976   0.83128   0.66013 
C          C       0.76354   0.08822   0.83987 
C          C       0.55987   0.28427   0.66013 
H          H       0.33697   0.02972   0.59052 
H          H       0.52127   0.85238   0.90950 
H          H       0.74266   0.08583   0.59052 
H          H       0.55836   0.26318   0.90950 
H          H       0.33697   0.02972   0.90948 
H          H       0.52127   0.85238   0.59051 
H          H       0.74266   0.08583   0.90948 
H          H       0.55836   0.26318   0.59051 
C          C       0.26176   0.02024   0.66028 
C          C       0.51552   0.77634   0.83971 
C          C       0.81787   0.09532   0.66028 
C          C       0.56411   0.33922   0.83971 
C          C       0.26176   0.02024   0.83972 
C          C       0.51552   0.77634   0.66030 
C          C       0.81787   0.09532   0.83972 
C          C       0.56411   0.33922   0.66030 
H          H       0.24052   0.01694   0.59114 
H          H       0.51367   0.75484   0.90880 
H          H       0.83911   0.09862   0.59114 
H          H       0.56596   0.36072   0.90880 
H          H       0.24052   0.01694   0.90886 
H          H       0.51367   0.75484   0.59120 
H          H       0.83911   0.09862   0.90886 
H          H       0.56596   0.36072   0.59120 
C          C       0.23459   0.01691   0.75000 
C          C       0.51362   0.74887   0.75000 
C          C       0.84504   0.09865   0.75000 
C          C       0.56601   0.36669   0.75000 
H          H       0.11356   0.13825   0.75000 
H          H       0.62738   0.61658   0.75000 
H          H       0.46005   0.59553   0.75000 
H          H       0.49111   0.41946   0.75000 
O          O       0.04763   0.94721   0.75000 
H          H       0.89970   0.02149   0.75000 
C          C       0.08021   0.91046   0.75000 
O          O       0.12703   0.92240   0.75000 
H          H       0.45225   0.49897   0.75000 
H          H       0.61958   0.52003   0.75000 
H          H       0.58853   0.69609   0.75000 
O          O       0.03200   0.16834   0.75000 
H          H       0.17993   0.09406   0.75000 
C          C       0.21409   0.61742   0.75000 
C          C       0.19159   0.56336   0.75000 
C          C       0.13773   0.54713   0.75000 
C          C       0.10684   0.58474   0.75000 
C          C       0.12786   0.63863   0.75000 
C          C       0.18253   0.65528   0.75000 
C          C       0.09017   0.67459   0.75000 
C          C       0.10405   0.72723   0.75000 
C          C       0.01153   0.74597   0.75000 
C          C       0.06637   0.76297   0.75000 
C          C       0.00152   0.83720   0.75000 
C          C       0.05586   0.85408   0.75000 
C          C       0.08757   0.81684   0.75000 
H          H       0.25597   0.62993   0.75000 
H          H       0.21569   0.53404   0.75000 
H          H       0.11956   0.50552   0.75000 
H          H      -0.00534   0.53329   0.75001 
H          H       0.12954   0.82993   0.75000 
C          C      -0.04598   0.52148   0.75000 
C          C      -0.03054   0.43122   0.75000 
C          C       0.05018   0.36430   0.75000 
C          C      -0.00426   0.34394   0.75000 
C          C       0.08503   0.33026   0.75000 
C          C       0.06652   0.27600   0.75000 
C          C       0.01279   0.25483   0.75000 
H          H       0.12657   0.34599   0.75000 
H          H       0.09471   0.25050   0.75000 
H          H       0.01009   0.45016   0.75000 
H          H       0.04922   0.65625   0.75000 
H          H       0.14494   0.74574   0.75000 
C          C      -0.00537   0.19685   0.75000 
C          C      -0.02256   0.28888   0.75000 
C          C      -0.04371   0.37821   0.75000 
C          C      -0.06772   0.46762   0.75000 
C          C      -0.12229   0.45169   0.75000 
C          C      -0.15325   0.49019   0.75000 
C          C      -0.13008   0.54414   0.75000 
C          C      -0.07619   0.55967   0.75000 
C          C      -0.02047   0.78325   0.75000 
O          O      -0.05119   0.17577   0.75000 
H          H      -0.02376   0.86559   0.75000 
H          H      -0.06242   0.77034   0.75000 
H          H      -0.00703   0.70468   0.75000 
H          H      -0.05745   0.60117   0.75001 
H          H      -0.15366   0.57394   0.75000 
H          H      -0.19516   0.47831   0.75000 
H          H      -0.14108   0.41041   0.75000 
H          H      -0.08437   0.35885   0.75000 
H          H      -0.06393   0.27267   0.75000 
H          H       0.06689   0.40599   0.75000 
H          H       0.06627   0.57248   0.75000 
H          H       0.20114   0.69659   0.75000 
H          H       0.96186  -0.01781   0.75000 
