data_crystal
 
_cell_length_a    26.23240
_cell_length_b    25.80400
_cell_length_c    13.49400
_cell_angle_alpha 90.00000
_cell_angle_beta  90.00000
_cell_angle_gamma 101.73700
 
_symmetry_space_group_name_Hall 'P 1'
_symmetry_space_group_name_H-M  'P 1'
 
loop_
_symmetry_equiv_pos_as_xyz
 'x,y,z' 
 
loop_
_atom_site_label
_atom_site_type_symbol
_atom_site_fract_x
_atom_site_fract_y
_atom_site_fract_z
_atom_site_charge
C          C       0.07875   0.09157   0.23405   0.0000000000
C          C       0.54870   0.57755   0.17845   0.0000000000
C          C       0.98860   0.01701   0.27113   0.0000000000
C          C       0.51727   0.53262   0.36301   0.0000000000
C          C       0.51447   0.58572   0.34310   0.0000000000
C          C       0.03757   0.00227   0.28115   0.0000000000
C          C       0.55139   0.52436   0.19878   0.0000000000
C          C       0.02974   0.10640   0.22305   0.0000000000
C          C       0.53761   0.44713   0.31350   0.0000000000
C          C       0.93198   0.07641   0.21916   0.0000000000
C          C       0.52807   0.66270   0.22799   0.0000000000
C          C       0.13483   0.03009   0.28466   0.0000000000
C          C       0.52995   0.60938   0.25026   0.0000000000
C          C       0.08445   0.04056   0.26510   0.0000000000
C          C       0.53595   0.50064   0.29154   0.0000000000
C          C       0.98290   0.06796   0.23940   0.0000000000
N          N       0.51389   0.69890   0.28992   0.0000000000
N          N       0.17893   0.05041   0.23205   0.0000000000
N          N       0.55276   0.41283   0.24840   0.0000000000
N          N       0.89050   0.06434   0.28230   0.0000000000
N          N       0.48185   0.10873   0.25899   0.0000000000
N          N       0.58668   0.00300   0.26272   0.0000000000
C          C       0.42877   0.09526   0.25735   0.0000000000
C          C       0.56923   0.94959   0.26502   0.0000000000
C          C       0.63974   0.01650   0.26514   0.0000000000
C          C       0.49932   0.16214   0.25987   0.0000000000
C          C       0.41149   0.14290   0.25770   0.0000000000
C          C       0.61408   0.92822   0.26981   0.0000000000
C          C       0.65711   0.96897   0.26910   0.0000000000
C          C       0.45448   0.18360   0.25856   0.0000000000
H          H       0.37380   0.14775   0.25717   0.0000000000
H          H       0.61566   0.88905   0.27334   0.0000000000
H          H       0.69491   0.96442   0.27148   0.0000000000
H          H       0.45280   0.22279   0.25804   0.0000000000
N          N       0.46685   0.99242   0.26061   0.0000000000
N          N       0.60166   0.11935   0.26130   0.0000000000
C          C       0.41611   0.99747   0.25657   0.0000000000
C          C       0.47167   0.94089   0.26003   0.0000000000
C          C       0.65242   0.11433   0.26254   0.0000000000
C          C       0.59690   0.17088   0.26141   0.0000000000
C          C       0.38677   0.94605   0.25285   0.0000000000
C          C       0.42074   0.91147   0.25507   0.0000000000
C          C       0.68186   0.16575   0.26306   0.0000000000
C          C       0.64789   0.20033   0.26244   0.0000000000
H          H       0.34712   0.93538   0.24890   0.0000000000
H          H       0.40987   0.87115   0.25296   0.0000000000
H          H       0.72155   0.17644   0.26410   0.0000000000
H          H       0.65887   0.24065   0.26284   0.0000000000
C          C       0.39525   0.04430   0.25538   0.0000000000
C          C       0.51737   0.91893   0.26322   0.0000000000
C          C       0.67317   0.06747   0.26428   0.0000000000
C          C       0.55119   0.19279   0.26105   0.0000000000
C          C       0.34000   0.04139   0.25071   0.0000000000
C          C       0.51196   0.86272   0.26549   0.0000000000
C          C       0.72842   0.07055   0.26692   0.0000000000
C          C       0.55647   0.24897   0.26122   0.0000000000
C          C       0.31595   0.05280   0.16138   0.0000000000
C          C       0.30714   0.03025   0.33498   0.0000000000
C          C       0.50037   0.83414   0.35494   0.0000000000
C          C       0.52137   0.83405   0.18021   0.0000000000
C          C       0.75921   0.07517   0.17947   0.0000000000
C          C       0.75470   0.06622   0.35756   0.0000000000
C          C       0.54913   0.27656   0.34906   0.0000000000
C          C       0.56565   0.27867   0.17251   0.0000000000
H          H       0.33779   0.06034   0.09811   0.0000000000
H          H       0.32260   0.02148   0.40117   0.0000000000
H          H       0.49272   0.85339   0.41787   0.0000000000
H          H       0.52922   0.85319   0.11372   0.0000000000
H          H       0.74211   0.07887   0.11226   0.0000000000
H          H       0.73447   0.06355   0.42294   0.0000000000
H          H       0.54328   0.25658   0.41497   0.0000000000
H          H       0.57196   0.26028   0.10787   0.0000000000
C          C       0.26245   0.05521   0.15753   0.0000000000
C          C       0.25332   0.03196   0.33052   0.0000000000
C          C       0.50032   0.77935   0.35965   0.0000000000
C          C       0.52155   0.77933   0.18544   0.0000000000
C          C       0.81317   0.07407   0.18248   0.0000000000
C          C       0.80840   0.06444   0.35998   0.0000000000
C          C       0.54832   0.33119   0.34712   0.0000000000
C          C       0.56521   0.33338   0.17108   0.0000000000
H          H       0.24699   0.06438   0.09158   0.0000000000
H          H       0.23124   0.02409   0.39317   0.0000000000
H          H       0.49231   0.75998   0.42575   0.0000000000
H          H       0.52929   0.76029   0.12262   0.0000000000
H          H       0.83367   0.07734   0.11763   0.0000000000
H          H       0.82554   0.06049   0.42694   0.0000000000
H          H       0.54222   0.34927   0.41190   0.0000000000
H          H       0.57165   0.35355   0.10557   0.0000000000
C          C       0.22985   0.04531   0.24190   0.0000000000
C          C       0.51201   0.75100   0.27594   0.0000000000
C          C       0.83906   0.06794   0.27288   0.0000000000
C          C       0.55533   0.36059   0.25768   0.0000000000
H          H       0.11153   0.11976   0.22133   0.0000000000
H          H       0.56114   0.59270   0.11018   0.0000000000
H          H       0.50029   0.60672   0.39762   0.0000000000
H          H       0.52465   0.43296   0.38201   0.0000000000
O          O       0.03281   0.94990   0.30479   0.0000000000
H          H       0.92629   0.09184   0.15121   0.0000000000
C          C       0.06074   0.91275   0.27803   0.0000000000
O          O       0.09800   0.92578   0.21886   0.0000000000
H          H       0.95603   0.98872   0.28492   0.0000000000
H          H       0.50507   0.51730   0.43106   0.0000000000
H          H       0.56533   0.50278   0.14515   0.0000000000
O          O       0.03666   0.15929   0.20155   0.0000000000
H          H       0.13778   0.00432   0.34093   0.0000000000
C          C       1.00728   0.19722   0.19364   0.0000000000
O          O       0.95892   0.18543   0.20369   0.0000000000
C          C       0.19310   0.63740   0.17588   0.0000000000
C          C       0.18057   0.58306   0.19823   0.0000000000
C          C       0.13642   0.56231   0.25540   0.0000000000
C          C       0.10361   0.59579   0.28908   0.0000000000
C          C       0.11494   0.65048   0.26621   0.0000000000
C          C       0.16018   0.67047   0.20957   0.0000000000
N          N       0.08275   0.68169   0.29938   0.0000000000
N          N       0.09055   0.73279   0.28497   0.0000000000
C          C       0.01540   0.75175   0.37212   0.0000000000
C          C       0.06104   0.76728   0.31494   0.0000000000
C          C       0.98552   0.78909   0.39929   0.0000000000
C          C       0.00094   0.84225   0.36912   0.0000000000
C          C       0.04654   0.85946   0.31124   0.0000000000
C          C       0.07629   0.82091   0.28605   0.0000000000
H          H       0.22551   0.65257   0.13481   0.0000000000
H          H       0.20375   0.55842   0.17287   0.0000000000
H          H       0.12831   0.52273   0.27232   0.0000000000
H          H       0.95249   0.77753   0.44094   0.0000000000
H          H       0.97827   0.86853   0.38969   0.0000000000
H          H       0.10955   0.83169   0.24469   0.0000000000
C          C       0.92399   0.51802   0.21446   0.0000000000
C          C       0.94953   0.56679   0.17309   0.0000000000
C          C       0.99597   0.56987   0.11920   0.0000000000
C          C       0.01701   0.52443   0.10824   0.0000000000
C          C       0.99337   0.47566   0.15142   0.0000000000
C          C       0.94605   0.47280   0.20364   0.0000000000
N          N       0.01756   0.43421   0.14294   0.0000000000
N          N       1.00009   0.38463   0.16601   0.0000000000
C          C       0.08347   0.35868   0.15246   0.0000000000
C          C       0.02872   0.34636   0.16323   0.0000000000
C          C       0.11235   0.31844   0.15271   0.0000000000
C          C       0.08686   0.26537   0.16490   0.0000000000
C          C       0.03201   0.25107   0.17765   0.0000000000
C          C       1.00372   0.29273   0.17572   0.0000000000
H          H       0.88960   0.51581   0.25250   0.0000000000
H          H       0.93379   0.59979   0.18154   0.0000000000
H          H       1.01391   0.60506   0.08781   0.0000000000
H          H       0.15193   0.32783   0.14458   0.0000000000
H          H       0.10909   0.23702   0.16497   0.0000000000
H          H       0.96398   0.28423   0.18439   0.0000000000
H          H       0.92752   0.43755   0.23431   0.0000000000
H          H       1.00401   0.71304   0.39381   0.0000000000
H          H       0.16923   0.70976   0.19259   0.0000000000
H          H       0.10249   0.39749   0.14531   0.0000000000
H          H       0.50807   0.07996   0.25899   0.0000000000
H          H       0.56078   0.03209   0.26272   0.0000000000
H          H       1.07186   0.57971   0.33081   0.0000000000
H          H       1.05092   0.52961   0.06935   0.0000000000
H          H       0.53863   0.67542   0.15700   0.0000000000
C          C       0.07875   0.09157   0.73405   0.0000000000
C          C       0.54870   0.57755   0.67845   0.0000000000
C          C       0.98860   0.01701   0.77113   0.0000000000
C          C       0.51727   0.53262   0.86302   0.0000000000
C          C       0.51447   0.58572   0.84310   0.0000000000
C          C       0.03757   0.00227   0.78115   0.0000000000
C          C       0.55139   0.52436   0.69878   0.0000000000
C          C       0.02974   0.10640   0.72305   0.0000000000
C          C       0.53761   0.44713   0.81350   0.0000000000
C          C       0.93198   0.07641   0.71916   0.0000000000
C          C       0.52807   0.66270   0.72799   0.0000000000
C          C       0.13483   0.03009   0.78465   0.0000000000
C          C       0.52995   0.60938   0.75026   0.0000000000
C          C       0.08445   0.04056   0.76510   0.0000000000
C          C       0.53595   0.50064   0.79154   0.0000000000
C          C       0.98290   0.06796   0.73940   0.0000000000
N          N       0.51389   0.69890   0.78992   0.0000000000
N          N       0.17893   0.05041   0.73205   0.0000000000
N          N       0.55276   0.41283   0.74840   0.0000000000
N          N       0.89050   0.06434   0.78230   0.0000000000
N          N       0.48185   0.10873   0.75899   0.0000000000
N          N       0.58668   0.00300   0.76273   0.0000000000
C          C       0.42877   0.09526   0.75735   0.0000000000
C          C       0.56923   0.94959   0.76502   0.0000000000
C          C       0.63974   0.01650   0.76514   0.0000000000
C          C       0.49932   0.16214   0.75987   0.0000000000
C          C       0.41149   0.14290   0.75770   0.0000000000
C          C       0.61408   0.92822   0.76981   0.0000000000
C          C       0.65711   0.96897   0.76910   0.0000000000
C          C       0.45448   0.18360   0.75856   0.0000000000
H          H       0.37380   0.14775   0.75717   0.0000000000
H          H       0.61566   0.88905   0.77334   0.0000000000
H          H       0.69491   0.96442   0.77148   0.0000000000
H          H       0.45280   0.22279   0.75804   0.0000000000
N          N       0.46685   0.99242   0.76062   0.0000000000
N          N       0.60166   0.11935   0.76130   0.0000000000
C          C       0.41611   0.99747   0.75658   0.0000000000
C          C       0.47167   0.94089   0.76003   0.0000000000
C          C       0.65242   0.11433   0.76254   0.0000000000
C          C       0.59690   0.17088   0.76141   0.0000000000
C          C       0.38677   0.94605   0.75285   0.0000000000
C          C       0.42074   0.91147   0.75506   0.0000000000
C          C       0.68186   0.16575   0.76307   0.0000000000
C          C       0.64789   0.20033   0.76244   0.0000000000
H          H       0.34712   0.93538   0.74890   0.0000000000
H          H       0.40987   0.87115   0.75296   0.0000000000
H          H       0.72155   0.17644   0.76410   0.0000000000
H          H       0.65887   0.24065   0.76284   0.0000000000
C          C       0.39525   0.04430   0.75538   0.0000000000
C          C       0.51737   0.91893   0.76322   0.0000000000
C          C       0.67317   0.06747   0.76428   0.0000000000
C          C       0.55119   0.19279   0.76105   0.0000000000
C          C       0.34000   0.04139   0.75071   0.0000000000
C          C       0.51196   0.86272   0.76550   0.0000000000
C          C       0.72842   0.07055   0.76692   0.0000000000
C          C       0.55647   0.24897   0.76122   0.0000000000
C          C       0.31595   0.05280   0.66138   0.0000000000
C          C       0.30714   0.03025   0.83498   0.0000000000
C          C       0.50037   0.83414   0.85494   0.0000000000
C          C       0.52137   0.83405   0.68021   0.0000000000
C          C       0.75921   0.07517   0.67946   0.0000000000
C          C       0.75470   0.06622   0.85756   0.0000000000
C          C       0.54913   0.27656   0.84906   0.0000000000
C          C       0.56565   0.27867   0.67251   0.0000000000
H          H       0.33779   0.06034   0.59811   0.0000000000
H          H       0.32260   0.02148   0.90117   0.0000000000
H          H       0.49272   0.85339   0.91787   0.0000000000
H          H       0.52922   0.85319   0.61372   0.0000000000
H          H       0.74211   0.07887   0.61226   0.0000000000
H          H       0.73447   0.06355   0.92294   0.0000000000
H          H       0.54328   0.25658   0.91497   0.0000000000
H          H       0.57196   0.26028   0.60787   0.0000000000
C          C       0.26245   0.05521   0.65753   0.0000000000
C          C       0.25332   0.03196   0.83052   0.0000000000
C          C       0.50032   0.77935   0.85965   0.0000000000
C          C       0.52155   0.77933   0.68544   0.0000000000
C          C       0.81317   0.07407   0.68248   0.0000000000
C          C       0.80840   0.06444   0.85998   0.0000000000
C          C       0.54832   0.33119   0.84712   0.0000000000
C          C       0.56521   0.33338   0.67109   0.0000000000
H          H       0.24699   0.06438   0.59158   0.0000000000
H          H       0.23124   0.02409   0.89318   0.0000000000
H          H       0.49231   0.75998   0.92575   0.0000000000
H          H       0.52929   0.76029   0.62262   0.0000000000
H          H       0.83367   0.07734   0.61763   0.0000000000
H          H       0.82554   0.06049   0.92694   0.0000000000
H          H       0.54222   0.34927   0.91190   0.0000000000
H          H       0.57165   0.35355   0.60557   0.0000000000
C          C       0.22985   0.04531   0.74190   0.0000000000
C          C       0.51201   0.75100   0.77594   0.0000000000
C          C       0.83906   0.06794   0.77288   0.0000000000
C          C       0.55533   0.36059   0.75768   0.0000000000
H          H       0.11153   0.11976   0.72133   0.0000000000
H          H       0.56114   0.59270   0.61018   0.0000000000
H          H       0.50029   0.60672   0.89762   0.0000000000
H          H       0.52465   0.43296   0.88201   0.0000000000
O          O       0.03281   0.94990   0.80479   0.0000000000
H          H       0.92629   0.09184   0.65121   0.0000000000
C          C       0.06074   0.91275   0.77803   0.0000000000
O          O       0.09800   0.92578   0.71886   0.0000000000
H          H       0.95603   0.98872   0.78492   0.0000000000
H          H       0.50507   0.51730   0.93106   0.0000000000
H          H       0.56533   0.50278   0.64515   0.0000000000
O          O       0.03666   0.15929   0.70155   0.0000000000
H          H       0.13778   0.00432   0.84093   0.0000000000
C          C       1.00728   0.19722   0.69364   0.0000000000
O          O       0.95892   0.18543   0.70369   0.0000000000
C          C       0.19310   0.63740   0.67588   0.0000000000
C          C       0.18057   0.58306   0.69823   0.0000000000
C          C       0.13642   0.56231   0.75540   0.0000000000
C          C       0.10361   0.59579   0.78908   0.0000000000
C          C       0.11494   0.65048   0.76621   0.0000000000
C          C       0.16018   0.67047   0.70957   0.0000000000
N          N       0.08275   0.68169   0.79938   0.0000000000
N          N       0.09055   0.73279   0.78497   0.0000000000
C          C       0.01540   0.75175   0.87212   0.0000000000
C          C       0.06104   0.76728   0.81495   0.0000000000
C          C       0.98552   0.78909   0.89929   0.0000000000
C          C       0.00094   0.84225   0.86913   0.0000000000
C          C       0.04654   0.85946   0.81125   0.0000000000
C          C       0.07629   0.82091   0.78605   0.0000000000
H          H       0.22551   0.65257   0.63481   0.0000000000
H          H       0.20375   0.55842   0.67287   0.0000000000
H          H       0.12831   0.52273   0.77232   0.0000000000
H          H       0.95249   0.77753   0.94094   0.0000000000
H          H       0.97827   0.86853   0.88969   0.0000000000
H          H       0.10955   0.83169   0.74469   0.0000000000
C          C       0.92399   0.51802   0.71446   0.0000000000
C          C       0.94953   0.56679   0.67309   0.0000000000
C          C       0.99597   0.56987   0.61920   0.0000000000
C          C       0.01701   0.52443   0.60824   0.0000000000
C          C       0.99337   0.47566   0.65142   0.0000000000
C          C       0.94605   0.47280   0.70364   0.0000000000
N          N       0.01756   0.43421   0.64294   0.0000000000
N          N       1.00009   0.38463   0.66601   0.0000000000
C          C       0.08347   0.35868   0.65246   0.0000000000
C          C       0.02872   0.34636   0.66323   0.0000000000
C          C       0.11235   0.31844   0.65270   0.0000000000
C          C       0.08686   0.26537   0.66490   0.0000000000
C          C       0.03201   0.25107   0.67765   0.0000000000
C          C       1.00372   0.29273   0.67572   0.0000000000
H          H       0.88960   0.51581   0.75250   0.0000000000
H          H       0.93379   0.59979   0.68154   0.0000000000
H          H       1.01391   0.60506   0.58781   0.0000000000
H          H       0.15193   0.32783   0.64458   0.0000000000
H          H       0.10909   0.23702   0.66497   0.0000000000
H          H       0.96398   0.28423   0.68439   0.0000000000
H          H       0.92752   0.43755   0.73431   0.0000000000
H          H       1.00401   0.71304   0.89381   0.0000000000
H          H       0.16923   0.70976   0.69259   0.0000000000
H          H       0.10249   0.39749   0.64531   0.0000000000
H          H       0.50807   0.07996   0.75899   0.0000000000
H          H       0.56078   0.03209   0.76273   0.0000000000
H          H       1.07186   0.57971   0.83081   0.0000000000
H          H       1.05092   0.52961   0.56935   0.0000000000
H          H       0.53863   0.67542   0.65700   0.0000000000
