data_crystal
 
_cell_length_a    29.21400
_cell_length_b    29.21400
_cell_length_c    3.60000
_cell_angle_alpha 90.00000
_cell_angle_beta  90.00000
_cell_angle_gamma 120.00000
 
_symmetry_space_group_name_Hall 'P 1'
_symmetry_space_group_name_H-M  'P 1'
 
loop_
_symmetry_equiv_pos_as_xyz
 'x,y,z' 
 
loop_
_atom_site_label
_atom_site_type_symbol
_atom_site_fract_x
_atom_site_fract_y
_atom_site_fract_z
_atom_site_charge
N          N       0.42352   0.61468   0.50000   0.0000000000
N          N       0.38532   0.80884   0.50000   0.0000000000
N          N       0.19116   0.57648   0.50000   0.0000000000
N          N       0.57648   0.38532   0.50000   0.0000000000
N          N       0.61468   0.19116   0.50000   0.0000000000
N          N       0.80884   0.42352   0.50000   0.0000000000
C          C       0.37180   0.59845   0.50000   0.0000000000
C          C       0.44426   0.58185   0.50000   0.0000000000
C          C       0.41232   0.52737   0.50000   0.0000000000
C          C       0.43458   0.49614   0.50000   0.0000000000
C          C       0.48904   0.51738   0.50000   0.0000000000
C          C       0.52049   0.57227   0.50000   0.0000000000
C          C       0.49854   0.60410   0.50000   0.0000000000
H          H       0.36857   0.41657   0.24104   0.0000000000
H          H       0.36857   0.41657   0.75896   0.0000000000
N          N       0.35293   0.50280   0.50000   0.0000000000
C          C       0.31805   0.44347   0.50000   0.0000000000
H          H       0.33489   0.52839   0.50000   0.0000000000
C          C       0.34307   0.40798   0.50000   0.0000000000
O          O       0.25866   0.41899   0.50000   0.0000000000
H          H       0.31044   0.36475   0.50000   0.0000000000
C          C       0.40155   0.77335   0.50000   0.0000000000
C          C       0.41815   0.86240   0.50000   0.0000000000
C          C       0.47263   0.88495   0.50000   0.0000000000
C          C       0.50386   0.93843   0.50000   0.0000000000
C          C       0.48262   0.97167   0.50000   0.0000000000
C          C       0.42773   0.94822   0.50000   0.0000000000
C          C       0.39590   0.89444   0.50000   0.0000000000
H          H       0.58343   0.95200   0.24104   0.0000000000
H          H       0.58343   0.95200   0.75896   0.0000000000
N          N       0.49720   0.85014   0.50000   0.0000000000
C          C       0.55653   0.87458   0.50000   0.0000000000
H          H       0.47161   0.80650   0.50000   0.0000000000
C          C       0.59202   0.93509   0.50000   0.0000000000
O          O       0.58101   0.83966   0.50000   0.0000000000
H          H       0.63525   0.94569   0.50000   0.0000000000
C          C       0.22665   0.62820   0.50000   0.0000000000
C          C       0.13760   0.55574   0.50000   0.0000000000
C          C       0.11505   0.58768   0.50000   0.0000000000
C          C       0.06157   0.56542   0.50000   0.0000000000
C          C       0.02833   0.51096   0.50000   0.0000000000
C          C       0.05178   0.47951   0.50000   0.0000000000
C          C       0.10556   0.50146   0.50000   0.0000000000
H          H       0.04800   0.63143   0.24104   0.0000000000
H          H       0.04800   0.63143   0.75896   0.0000000000
N          N       0.14986   0.64707   0.50000   0.0000000000
C          C       0.12542   0.68195   0.50000   0.0000000000
H          H       0.19350   0.66511   0.50000   0.0000000000
C          C       0.06491   0.65693   0.50000   0.0000000000
O          O       0.16034   0.74134   0.50000   0.0000000000
H          H       0.05431   0.68956   0.50000   0.0000000000
C          C       0.62820   0.40155   0.50000   0.0000000000
C          C       0.55574   0.41815   0.50000   0.0000000000
C          C       0.58768   0.47263   0.50000   0.0000000000
C          C       0.56542   0.50386   0.50000   0.0000000000
C          C       0.51096   0.48262   0.50000   0.0000000000
C          C       0.47951   0.42773   0.50000   0.0000000000
C          C       0.50146   0.39590   0.50000   0.0000000000
H          H       0.63143   0.58343   0.24104   0.0000000000
H          H       0.63143   0.58343   0.75896   0.0000000000
N          N       0.64707   0.49720   0.50000   0.0000000000
C          C       0.68195   0.55653   0.50000   0.0000000000
H          H       0.66511   0.47161   0.50000   0.0000000000
C          C       0.65693   0.59202   0.50000   0.0000000000
O          O       0.74134   0.58101   0.50000   0.0000000000
H          H       0.68956   0.63525   0.50000   0.0000000000
C          C       0.59845   0.22665   0.50000   0.0000000000
C          C       0.58185   0.13760   0.50000   0.0000000000
C          C       0.52737   0.11505   0.50000   0.0000000000
C          C       0.49614   0.06157   0.50000   0.0000000000
C          C       0.51738   0.02833   0.50000   0.0000000000
C          C       0.57227   0.05178   0.50000   0.0000000000
C          C       0.60410   0.10556   0.50000   0.0000000000
H          H       0.41657   0.04800   0.24104   0.0000000000
H          H       0.41657   0.04800   0.75896   0.0000000000
N          N       0.50279   0.14986   0.50000   0.0000000000
C          C       0.44347   0.12542   0.50000   0.0000000000
H          H       0.52839   0.19350   0.50000   0.0000000000
C          C       0.40798   0.06491   0.50000   0.0000000000
O          O       0.41899   0.16034   0.50000   0.0000000000
H          H       0.36475   0.05431   0.50000   0.0000000000
C          C       0.77335   0.37180   0.50000   0.0000000000
C          C       0.86240   0.44426   0.50000   0.0000000000
C          C       0.88495   0.41232   0.50000   0.0000000000
C          C       0.93843   0.43458   0.50000   0.0000000000
C          C       0.97167   0.48904   0.50000   0.0000000000
C          C       0.94822   0.52049   0.50000   0.0000000000
C          C       0.89444   0.49854   0.50000   0.0000000000
H          H       0.95200   0.36857   0.24104   0.0000000000
H          H       0.95200   0.36857   0.75896   0.0000000000
N          N       0.85014   0.35293   0.50000   0.0000000000
C          C       0.87458   0.31805   0.50000   0.0000000000
H          H       0.80650   0.33489   0.50000   0.0000000000
C          C       0.93509   0.34307   0.50000   0.0000000000
O          O       0.83966   0.25866   0.50000   0.0000000000
H          H       0.94569   0.31044   0.50000   0.0000000000
H          H       0.34157   0.55440   0.50000   0.0000000000
H          H       0.45018   0.65818   0.50000   0.0000000000
H          H       0.52499   0.64892   0.50000   0.0000000000
H          H       0.40839   0.45129   0.50000   0.0000000000
H          H       0.56539   0.59145   0.50000   0.0000000000
H          H       0.44560   0.78717   0.50000   0.0000000000
H          H       0.34182   0.79199   0.50000   0.0000000000
H          H       0.35108   0.87607   0.50000   0.0000000000
H          H       0.54871   0.95709   0.50000   0.0000000000
H          H       0.40855   0.97394   0.50000   0.0000000000
H          H       0.21283   0.65843   0.50000   0.0000000000
H          H       0.20801   0.54982   0.50000   0.0000000000
H          H       0.12393   0.47501   0.50000   0.0000000000
H          H       0.04290   0.59161   0.50000   0.0000000000
H          H       0.02606   0.43461   0.50000   0.0000000000
H          H       0.65843   0.44560   0.50000   0.0000000000
H          H       0.54982   0.34182   0.50000   0.0000000000
H          H       0.47501   0.35108   0.50000   0.0000000000
H          H       0.59161   0.54871   0.50000   0.0000000000
H          H       0.43461   0.40855   0.50000   0.0000000000
H          H       0.55440   0.21283   0.50000   0.0000000000
H          H       0.65818   0.20801   0.50000   0.0000000000
H          H       0.64892   0.12393   0.50000   0.0000000000
H          H       0.45129   0.04290   0.50000   0.0000000000
H          H       0.59145   0.02606   0.50000   0.0000000000
H          H       0.78717   0.34157   0.50000   0.0000000000
H          H       0.79199   0.45018   0.50000   0.0000000000
H          H       0.87607   0.52499   0.50000   0.0000000000
H          H       0.95710   0.40839   0.50000   0.0000000000
H          H       0.97394   0.56539   0.50000   0.0000000000
C          C       0.61178   0.31203   0.50000   0.0000000000
C          C       0.64489   0.36772   0.50000   0.0000000000
C          C       0.68797   0.29975   0.50000   0.0000000000
C          C       0.63228   0.27716   0.50000   0.0000000000
C          C       0.70025   0.38822   0.50000   0.0000000000
C          C       0.72284   0.35511   0.50000   0.0000000000
C          C       0.38822   0.68797   0.50000   0.0000000000
C          C       0.35511   0.63228   0.50000   0.0000000000
C          C       0.31203   0.70025   0.50000   0.0000000000
C          C       0.36772   0.72284   0.50000   0.0000000000
C          C       0.29975   0.61178   0.50000   0.0000000000
C          C       0.27716   0.64489   0.50000   0.0000000000
O          O       0.56641   0.29365   0.50000   0.0000000000
O          O       0.70635   0.27276   0.50000   0.0000000000
O          O       0.72724   0.43359   0.50000   0.0000000000
O          O       0.43359   0.70635   0.50000   0.0000000000
O          O       0.29365   0.72724   0.50000   0.0000000000
O          O       0.27276   0.56641   0.50000   0.0000000000
