data_NUS-9
_audit_creation_date              0000-00-00
_audit_creation_method            'LanYouShi'
_symmetry_space_group_name_H-M    'P1'
_cell_length_a                    22.8959007
_cell_length_b                    22.8959007
_cell_length_c                    5.3800001
_cell_angle_alpha                 90.0000000
_cell_angle_beta                  90.0000000
_cell_angle_gamma                 120.0000000
loop_
_atom_site_label
_atom_site_type_symbol
_atom_site_fract_x
_atom_site_fract_y
_atom_site_fract_z
_atom_site_U_iso_or_equiv
_atom_site_adp_type
_atom_site_occupancy
        H1          H  0.3727303  0.4475375  0.3889558    0.00000       Uiso       1.00
        H2          H  0.5524629  0.9251930  0.3889628    0.00000       Uiso       1.00
        H3          H  0.0748077  0.6272702  0.3889730    0.00000       Uiso       1.00
        H4          H  0.6272702  0.5524628  0.3889511    0.00000       Uiso       1.00
        H5          H  0.4475375  0.0748075  0.3889667    0.00000       Uiso       1.00
        H6          H  0.9251928  0.3727302  0.3889733    0.00000       Uiso       1.00
        H7          H  0.6642846  0.4847896  0.4448926    0.00000       Uiso       1.00
        H8          H  0.5152108  0.1794956  0.4448904    0.00000       Uiso       1.00
        H9          H  0.8205048  0.3357158  0.4449038    0.00000       Uiso       1.00
       H10          H  0.3357159  0.5152109  0.4448918    0.00000       Uiso       1.00
       H11          H  0.4847896  0.8205048  0.4448894    0.00000       Uiso       1.00
       H12          H  0.1794957  0.6642847  0.4449033    0.00000       Uiso       1.00
        C1          C  0.5409939  0.5707076  0.3821209    0.00000       Uiso       1.00
        C2          C  0.4292928  0.9702864  0.3821346    0.00000       Uiso       1.00
        C3          C  0.0297139  0.4590065  0.3821419    0.00000       Uiso       1.00
        C4          C  0.4590065  0.4292927  0.3821239    0.00000       Uiso       1.00
        C5          C  0.5707077  0.0297141  0.3821324    0.00000       Uiso       1.00
        C6          C  0.9702865  0.5409940  0.3821414    0.00000       Uiso       1.00
        C7          C  0.5700819  0.5289719  0.3871263    0.00000       Uiso       1.00
        C8          C  0.4710284  0.0411102  0.3871395    0.00000       Uiso       1.00
        C9          C  0.9588901  0.4299185  0.3871468    0.00000       Uiso       1.00
       C10          C  0.4299185  0.4710284  0.3871289    0.00000       Uiso       1.00
       C11          C  0.5289720  0.9588903  0.3871374    0.00000       Uiso       1.00
       C12          C  0.0411103  0.5700819  0.3871466    0.00000       Uiso       1.00
       C13          C  0.5302609  0.4578233  0.3900171    0.00000       Uiso       1.00
       C14          C  0.5421770  0.0724378  0.3900267    0.00000       Uiso       1.00
       C15          C  0.9275626  0.4697396  0.3900349    0.00000       Uiso       1.00
       C16          C  0.4697395  0.5421770  0.3900166    0.00000       Uiso       1.00
       C17          C  0.4578234  0.9275625  0.3900271    0.00000       Uiso       1.00
       C18          C  0.0724378  0.5302609  0.3900352    0.00000       Uiso       1.00
       C19          C  0.6219696  0.4302576  0.4247822    0.00000       Uiso       1.00
       C20          C  0.5697427  0.1917124  0.4247845    0.00000       Uiso       1.00
       C21          C  0.8082880  0.3780308  0.4247931    0.00000       Uiso       1.00
       C22          C  0.3780309  0.5697428  0.4247816    0.00000       Uiso       1.00
       C23          C  0.4302576  0.8082880  0.4247844    0.00000       Uiso       1.00
       C24          C  0.1917124  0.6219696  0.4247934    0.00000       Uiso       1.00
        S1          S  0.5950929  0.6579672  0.3633195    0.00000       Uiso       1.00
        S2          S  0.3420331  0.9371259  0.3633381    0.00000       Uiso       1.00
        S3          S  0.0628743  0.4049073  0.3633437    0.00000       Uiso       1.00
        O1          O  0.5641136  0.6930655  0.1660254    0.00000       Uiso       1.00
        O2          O  0.3069338  0.8710480  0.1660459    0.00000       Uiso       1.00
        O3          O  0.1289520  0.4358861  0.1660503    0.00000       Uiso       1.00
        O4          O  0.6667015  0.6760459  0.2555894    0.00000       Uiso       1.00
        O5          O  0.3239541  0.9906557  0.2556085    0.00000       Uiso       1.00
        O6          O  0.0093443  0.3332986  0.2556146    0.00000       Uiso       1.00
        O7          O  0.6042869  0.6916726  0.6293812    0.00000       Uiso       1.00
        O8          O  0.3083285  0.9126152  0.6294014    0.00000       Uiso       1.00
        O9          O  0.0873854  0.3957135  0.6294062    0.00000       Uiso       1.00
       H13          H  0.5651380  0.7371137  0.2567208    0.00000       Uiso       1.00
       H14          H  0.2540702  0.8576038  0.1266394    0.00000       Uiso       1.00
       H15          H  0.1734844  0.4786837  0.2554667    0.00000       Uiso       1.00
       H16          H  0.4253330  0.3721740  0.3716687    0.00000       Uiso       1.00
       H17          H  0.6278264  0.0531594  0.3716762    0.00000       Uiso       1.00
       H18          H  0.9468413  0.5746675  0.3716858    0.00000       Uiso       1.00
        N2          N  0.5569343  0.4160601  0.3970017    0.00000       Uiso       1.00
         H          H  0.5234321  0.3607200  0.3782408    0.00000       Uiso       1.00
        N2          N  0.5839403  0.1408744  0.3970098    0.00000       Uiso       1.00
         H          H  0.6392804  0.1627122  0.3782529    0.00000       Uiso       1.00
        N2          N  0.8591260  0.4430663  0.3970167    0.00000       Uiso       1.00
         H          H  0.8372883  0.4765686  0.3782569    0.00000       Uiso       1.00
        N2          N  0.4430662  0.5839403  0.3970009    0.00000       Uiso       1.00
         H          H  0.4765685  0.6392804  0.3782398    0.00000       Uiso       1.00
        N2          N  0.4160601  0.8591260  0.3970105    0.00000       Uiso       1.00
         H          H  0.3607199  0.8372883  0.3782546    0.00000       Uiso       1.00
        N2          N  0.1408744  0.5569342  0.3970176    0.00000       Uiso       1.00
         H          H  0.1627121  0.5234318  0.3782589    0.00000       Uiso       1.00
       C43          C  0.5975685  0.3104852  0.4346715    0.00000       Uiso       1.00
       C44          C  0.6430003  0.3811403  0.4313526    0.00000       Uiso       1.00
       C43          C  0.6895151  0.2870837  0.4346777    0.00000       Uiso       1.00
       C44          C  0.6188601  0.2618603  0.4313540    0.00000       Uiso       1.00
       C43          C  0.7129167  0.4024318  0.4346766    0.00000       Uiso       1.00
       C44          C  0.7381400  0.3570001  0.4313586    0.00000       Uiso       1.00
       C43          C  0.4024318  0.6895151  0.4346706    0.00000       Uiso       1.00
       C44          C  0.3570001  0.6188600  0.4313523    0.00000       Uiso       1.00
       C43          C  0.3104853  0.7129167  0.4346785    0.00000       Uiso       1.00
       C44          C  0.3811403  0.7381400  0.4313538    0.00000       Uiso       1.00
       C43          C  0.2870838  0.5975686  0.4346772    0.00000       Uiso       1.00
       C44          C  0.2618604  0.6430003  0.4313591    0.00000       Uiso       1.00
       O13          O  0.5355206  0.2892738  0.4439991    0.00000       Uiso       1.00
       O13          O  0.7107265  0.2462472  0.4440111    0.00000       Uiso       1.00
       O13          O  0.7537531  0.4644797  0.4440095    0.00000       Uiso       1.00
       O13          O  0.4644798  0.7107266  0.4439968    0.00000       Uiso       1.00
       O13          O  0.2892739  0.7537532  0.4440128    0.00000       Uiso       1.00
       O13          O  0.2462474  0.5355207  0.4440107    0.00000       Uiso       1.00
