data_OH-H2P-COF
_audit_creation_date              0000-00-00
_audit_creation_method            'LanYouShi'
_symmetry_space_group_name_H-M    'P1'
_cell_length_a                    39.9528008
_cell_length_b                    32.9594002
_cell_length_c                    6.7463002
_cell_angle_alpha                 90.0000000
_cell_angle_beta                  90.0000000
_cell_angle_gamma                 90.0000000
loop_
_atom_site_label
_atom_site_type_symbol
_atom_site_fract_x
_atom_site_fract_y
_atom_site_fract_z
_atom_site_U_iso_or_equiv
_atom_site_adp_type
_atom_site_occupancy
        C1          C  0.2451031  0.7915966  0.5000014    0.00000       Uiso       1.00
        C2          C  0.7451031  0.2915970  0.5000014    0.00000       Uiso       1.00
        C3          C  0.7548968  0.2084026  0.5000014    0.00000       Uiso       1.00
        C4          C  0.2548968  0.7084022  0.5000014    0.00000       Uiso       1.00
        C5          C  0.7548968  0.7915966  0.5000014    0.00000       Uiso       1.00
        C6          C  0.2548968  0.2915970  0.5000014    0.00000       Uiso       1.00
        C7          C  0.2451031  0.2084026  0.5000014    0.00000       Uiso       1.00
        C8          C  0.7451031  0.7084022  0.5000014    0.00000       Uiso       1.00
        C9          C  0.2828020  0.7338179  0.5000014    0.00000       Uiso       1.00
       C10          C  0.7828020  0.2338183  0.5000014    0.00000       Uiso       1.00
       C11          C  0.7171979  0.2661813  0.5000014    0.00000       Uiso       1.00
       C12          C  0.2171979  0.7661809  0.5000014    0.00000       Uiso       1.00
       C13          C  0.7171979  0.7338179  0.5000014    0.00000       Uiso       1.00
       C14          C  0.2171979  0.2338183  0.5000014    0.00000       Uiso       1.00
       C15          C  0.2828020  0.2661813  0.5000014    0.00000       Uiso       1.00
       C16          C  0.7828020  0.7661809  0.5000014    0.00000       Uiso       1.00
       C17          C  0.1950895  0.6917987  0.5000014    0.00000       Uiso       1.00
       C18          C  0.6950895  0.1917991  0.5000014    0.00000       Uiso       1.00
       C19          C  0.8049104  0.3082005  0.5000014    0.00000       Uiso       1.00
       C20          C  0.3049104  0.8082001  0.5000014    0.00000       Uiso       1.00
       C21          C  0.8049104  0.6917987  0.5000014    0.00000       Uiso       1.00
       C22          C  0.3049104  0.1917991  0.5000014    0.00000       Uiso       1.00
       C23          C  0.1950895  0.3082005  0.5000014    0.00000       Uiso       1.00
       C24          C  0.6950895  0.8082001  0.5000014    0.00000       Uiso       1.00
       C25          C  0.2780865  0.7767330  0.5000014    0.00000       Uiso       1.00
       C26          C  0.7780865  0.2767334  0.5000014    0.00000       Uiso       1.00
       C27          C  0.7219133  0.2232662  0.5000014    0.00000       Uiso       1.00
       C28          C  0.2219134  0.7232658  0.5000014    0.00000       Uiso       1.00
       C29          C  0.7219133  0.7767330  0.5000014    0.00000       Uiso       1.00
       C30          C  0.2219134  0.2767334  0.5000014    0.00000       Uiso       1.00
       C31          C  0.2780865  0.2232662  0.5000014    0.00000       Uiso       1.00
       C32          C  0.7780865  0.7232658  0.5000014    0.00000       Uiso       1.00
        N1          N  0.3365290  0.7996539  0.5000014    0.00000       Uiso       1.00
        N2          N  0.8365289  0.2996544  0.5000014    0.00000       Uiso       1.00
        N3          N  0.6634709  0.2003452  0.5000014    0.00000       Uiso       1.00
        N4          N  0.1634710  0.7003448  0.5000014    0.00000       Uiso       1.00
        N5          N  0.6634709  0.7996539  0.5000014    0.00000       Uiso       1.00
        N6          N  0.1634710  0.2996544  0.5000014    0.00000       Uiso       1.00
        N7          N  0.3365290  0.2003452  0.5000014    0.00000       Uiso       1.00
        N8          N  0.8365289  0.7003448  0.5000014    0.00000       Uiso       1.00
        N9          N  0.0575183  0.4999996  0.5000014    0.00000       Uiso       1.00
       N10          N  0.5575183  0.0000000  0.5000014    0.00000       Uiso       1.00
       N11          N  0.9424816  0.4999996  0.5000014    0.00000       Uiso       1.00
       N12          N  0.4424816  0.0000000  0.5000014    0.00000       Uiso       1.00
        H1          H  0.0335161  0.4999996  0.5000014    0.00000       Uiso       1.00
        H2          H  0.5335160  0.0000000  0.5000014    0.00000       Uiso       1.00
        H3          H  0.9664838  0.4999996  0.5000014    0.00000       Uiso       1.00
        H4          H  0.4664839  0.0000000  0.5000014    0.00000       Uiso       1.00
       C33          C  0.0758099  0.4659470  0.5000014    0.00000       Uiso       1.00
       C34          C  0.5758098  0.9659466  0.5000014    0.00000       Uiso       1.00
       C35          C  0.9241900  0.5340522  0.5000014    0.00000       Uiso       1.00
       C36          C  0.4241901  0.0340526  0.5000014    0.00000       Uiso       1.00
       C37          C  0.9241900  0.4659470  0.5000014    0.00000       Uiso       1.00
       C38          C  0.4241901  0.9659466  0.5000014    0.00000       Uiso       1.00
       C39          C  0.0758099  0.5340522  0.5000014    0.00000       Uiso       1.00
       C40          C  0.5758098  0.0340526  0.5000014    0.00000       Uiso       1.00
       C41          C  0.1089872  0.4786815  0.5000014    0.00000       Uiso       1.00
       C42          C  0.6089872  0.9786810  0.5000014    0.00000       Uiso       1.00
       C43          C  0.8910126  0.5213177  0.5000014    0.00000       Uiso       1.00
       C44          C  0.3910127  0.0213181  0.5000014    0.00000       Uiso       1.00
       C45          C  0.8910126  0.4786815  0.5000014    0.00000       Uiso       1.00
       C46          C  0.3910127  0.9786810  0.5000014    0.00000       Uiso       1.00
       C47          C  0.1089872  0.5213177  0.5000014    0.00000       Uiso       1.00
       C48          C  0.6089872  0.0213181  0.5000014    0.00000       Uiso       1.00
        H5          H  0.1308581  0.4593534  0.5000014    0.00000       Uiso       1.00
        H6          H  0.6308581  0.9593530  0.5000014    0.00000       Uiso       1.00
        H7          H  0.8691419  0.5406458  0.5000014    0.00000       Uiso       1.00
        H8          H  0.3691419  0.0406462  0.5000014    0.00000       Uiso       1.00
        H9          H  0.8691419  0.4593534  0.5000014    0.00000       Uiso       1.00
       H10          H  0.3691419  0.9593530  0.5000014    0.00000       Uiso       1.00
       H11          H  0.1308581  0.5406458  0.5000014    0.00000       Uiso       1.00
       H12          H  0.6308581  0.0406462  0.5000014    0.00000       Uiso       1.00
       N13          N  0.4999999  0.9323947  0.5000014    0.00000       Uiso       1.00
       N14          N  0.0000000  0.4323951  0.5000014    0.00000       Uiso       1.00
       N15          N  0.4999999  0.0676045  0.5000014    0.00000       Uiso       1.00
       N16          N  0.0000000  0.5676041  0.5000014    0.00000       Uiso       1.00
       C49          C  0.5294584  0.9085550  0.5000014    0.00000       Uiso       1.00
       C50          C  0.0294585  0.4085554  0.5000014    0.00000       Uiso       1.00
       C51          C  0.4705415  0.0914442  0.5000014    0.00000       Uiso       1.00
       C52          C  0.9705414  0.5914438  0.5000014    0.00000       Uiso       1.00
       C53          C  0.4705415  0.9085550  0.5000014    0.00000       Uiso       1.00
       C54          C  0.9705414  0.4085554  0.5000014    0.00000       Uiso       1.00
       C55          C  0.5294584  0.0914442  0.5000014    0.00000       Uiso       1.00
       C56          C  0.0294585  0.5914438  0.5000014    0.00000       Uiso       1.00
       C57          C  0.5168966  0.8664508  0.5000014    0.00000       Uiso       1.00
       C58          C  0.0168967  0.3664513  0.5000014    0.00000       Uiso       1.00
       C59          C  0.4831033  0.1335483  0.5000014    0.00000       Uiso       1.00
       C60          C  0.9831032  0.6335479  0.5000014    0.00000       Uiso       1.00
       C61          C  0.4831033  0.8664508  0.5000014    0.00000       Uiso       1.00
       C62          C  0.9831032  0.3664513  0.5000014    0.00000       Uiso       1.00
       C63          C  0.5168966  0.1335483  0.5000014    0.00000       Uiso       1.00
       C64          C  0.0168967  0.6335479  0.5000014    0.00000       Uiso       1.00
       H13          H  0.5322306  0.8393948  0.5000014    0.00000       Uiso       1.00
       H14          H  0.0322307  0.3393952  0.5000014    0.00000       Uiso       1.00
       H15          H  0.4677693  0.1606044  0.5000014    0.00000       Uiso       1.00
       H16          H  0.9677693  0.6606040  0.5000014    0.00000       Uiso       1.00
       H17          H  0.4677693  0.8393948  0.5000014    0.00000       Uiso       1.00
       H18          H  0.9677693  0.3393952  0.5000014    0.00000       Uiso       1.00
       H19          H  0.5322306  0.1606044  0.5000014    0.00000       Uiso       1.00
       H20          H  0.0322307  0.6606040  0.5000014    0.00000       Uiso       1.00
       C65          C  0.0624757  0.4219703  0.5000014    0.00000       Uiso       1.00
       C66          C  0.5624756  0.9219700  0.5000014    0.00000       Uiso       1.00
       C67          C  0.9375242  0.5780289  0.5000014    0.00000       Uiso       1.00
       C68          C  0.4375243  0.0780293  0.5000014    0.00000       Uiso       1.00
       C69          C  0.9375242  0.4219703  0.5000014    0.00000       Uiso       1.00
       C70          C  0.4375243  0.9219700  0.5000014    0.00000       Uiso       1.00
       C71          C  0.0624757  0.5780289  0.5000014    0.00000       Uiso       1.00
       C72          C  0.5624756  0.0780293  0.5000014    0.00000       Uiso       1.00
       C73          C  0.0885467  0.3903511  0.5000014    0.00000       Uiso       1.00
       C74          C  0.5885467  0.8903507  0.5000014    0.00000       Uiso       1.00
       C75          C  0.9114532  0.6096481  0.5000014    0.00000       Uiso       1.00
       C76          C  0.4114532  0.1096485  0.5000014    0.00000       Uiso       1.00
       C77          C  0.9114532  0.3903511  0.5000014    0.00000       Uiso       1.00
       C78          C  0.4114532  0.8903507  0.5000014    0.00000       Uiso       1.00
       C79          C  0.0885467  0.6096481  0.5000014    0.00000       Uiso       1.00
       C80          C  0.5885467  0.1096485  0.5000014    0.00000       Uiso       1.00
       C81          C  0.6010219  0.8752936  0.6797664    0.00000       Uiso       1.00
       C82          C  0.1010220  0.3752940  0.6797664    0.00000       Uiso       1.00
       C83          C  0.3989780  0.1247056  0.6797664    0.00000       Uiso       1.00
       C84          C  0.8989779  0.6247052  0.6797664    0.00000       Uiso       1.00
       C85          C  0.3989780  0.8752936  0.3202365    0.00000       Uiso       1.00
       C86          C  0.8989779  0.3752940  0.3202365    0.00000       Uiso       1.00
       C87          C  0.6010219  0.1247056  0.3202365    0.00000       Uiso       1.00
       C88          C  0.1010220  0.6247052  0.3202365    0.00000       Uiso       1.00
       C89          C  0.3989780  0.1247056  0.3202365    0.00000       Uiso       1.00
       C90          C  0.8989779  0.6247052  0.3202365    0.00000       Uiso       1.00
       C91          C  0.6010219  0.8752936  0.3202365    0.00000       Uiso       1.00
       C92          C  0.1010220  0.3752940  0.3202365    0.00000       Uiso       1.00
       C93          C  0.6010219  0.1247056  0.6797664    0.00000       Uiso       1.00
       C94          C  0.1010220  0.6247052  0.6797664    0.00000       Uiso       1.00
       C95          C  0.3989780  0.8752936  0.6797664    0.00000       Uiso       1.00
       C96          C  0.8989779  0.3752940  0.6797664    0.00000       Uiso       1.00
       H21          H  0.0914495  0.3867502  0.8190488    0.00000       Uiso       1.00
       H22          H  0.5914494  0.8867497  0.8190488    0.00000       Uiso       1.00
       H23          H  0.9085504  0.6132491  0.8190488    0.00000       Uiso       1.00
       H24          H  0.4085504  0.1132495  0.8190488    0.00000       Uiso       1.00
       H25          H  0.9085504  0.3867502  0.1809541    0.00000       Uiso       1.00
       H26          H  0.4085504  0.8867497  0.1809541    0.00000       Uiso       1.00
       H27          H  0.0914495  0.6132491  0.1809541    0.00000       Uiso       1.00
       H28          H  0.5914494  0.1132495  0.1809541    0.00000       Uiso       1.00
       H29          H  0.9085504  0.6132491  0.1809541    0.00000       Uiso       1.00
       H30          H  0.4085504  0.1132495  0.1809541    0.00000       Uiso       1.00
       H31          H  0.0914495  0.3867502  0.1809541    0.00000       Uiso       1.00
       H32          H  0.5914494  0.8867497  0.1809541    0.00000       Uiso       1.00
       H33          H  0.0914495  0.6132491  0.8190488    0.00000       Uiso       1.00
       H34          H  0.5914494  0.1132495  0.8190488    0.00000       Uiso       1.00
       H35          H  0.9085504  0.3867502  0.8190488    0.00000       Uiso       1.00
       H36          H  0.4085504  0.8867497  0.8190488    0.00000       Uiso       1.00
       C97          C  0.1258127  0.3452890  0.6793889    0.00000       Uiso       1.00
       C98          C  0.6258126  0.8452886  0.6793889    0.00000       Uiso       1.00
       C99          C  0.8741872  0.6547102  0.6793889    0.00000       Uiso       1.00
      C100          C  0.3741873  0.1547106  0.6793889    0.00000       Uiso       1.00
      C101          C  0.8741872  0.3452890  0.3206140    0.00000       Uiso       1.00
      C102          C  0.3741873  0.8452886  0.3206140    0.00000       Uiso       1.00
      C103          C  0.1258127  0.6547102  0.3206140    0.00000       Uiso       1.00
      C104          C  0.6258126  0.1547106  0.3206140    0.00000       Uiso       1.00
      C105          C  0.8741872  0.6547102  0.3206140    0.00000       Uiso       1.00
      C106          C  0.3741873  0.1547106  0.3206140    0.00000       Uiso       1.00
      C107          C  0.1258127  0.3452890  0.3206140    0.00000       Uiso       1.00
      C108          C  0.6258126  0.8452886  0.3206140    0.00000       Uiso       1.00
      C109          C  0.1258127  0.6547102  0.6793889    0.00000       Uiso       1.00
      C110          C  0.6258126  0.1547106  0.6793889    0.00000       Uiso       1.00
      C111          C  0.8741872  0.3452890  0.6793889    0.00000       Uiso       1.00
      C112          C  0.3741873  0.8452886  0.6793889    0.00000       Uiso       1.00
       H37          H  0.1354284  0.3333883  0.8173892    0.00000       Uiso       1.00
       H38          H  0.6354284  0.8333879  0.8173892    0.00000       Uiso       1.00
       H39          H  0.8645715  0.6666108  0.8173892    0.00000       Uiso       1.00
       H40          H  0.3645715  0.1666113  0.8173892    0.00000       Uiso       1.00
       H41          H  0.8645715  0.3333883  0.1826136    0.00000       Uiso       1.00
       H42          H  0.3645715  0.8333879  0.1826136    0.00000       Uiso       1.00
       H43          H  0.1354284  0.6666108  0.1826136    0.00000       Uiso       1.00
       H44          H  0.6354284  0.1666113  0.1826136    0.00000       Uiso       1.00
       H45          H  0.8645715  0.6666108  0.1826136    0.00000       Uiso       1.00
       H46          H  0.3645715  0.1666113  0.1826136    0.00000       Uiso       1.00
       H47          H  0.1354284  0.3333883  0.1826136    0.00000       Uiso       1.00
       H48          H  0.6354284  0.8333879  0.1826136    0.00000       Uiso       1.00
       H49          H  0.1354284  0.6666108  0.8173892    0.00000       Uiso       1.00
       H50          H  0.6354284  0.1666113  0.8173892    0.00000       Uiso       1.00
       H51          H  0.8645715  0.3333883  0.8173892    0.00000       Uiso       1.00
       H52          H  0.3645715  0.8333879  0.8173892    0.00000       Uiso       1.00
      C113          C  0.1383178  0.3304208  0.5000014    0.00000       Uiso       1.00
      C114          C  0.6383178  0.8304204  0.5000014    0.00000       Uiso       1.00
      C115          C  0.8616821  0.6695784  0.5000014    0.00000       Uiso       1.00
      C116          C  0.3616821  0.1695788  0.5000014    0.00000       Uiso       1.00
      C117          C  0.8616821  0.3304208  0.5000014    0.00000       Uiso       1.00
      C118          C  0.3616821  0.8304204  0.5000014    0.00000       Uiso       1.00
      C119          C  0.1383178  0.6695784  0.5000014    0.00000       Uiso       1.00
      C120          C  0.6383178  0.1695788  0.5000014    0.00000       Uiso       1.00
       H53          H  0.2403730  0.8239460  0.5000014    0.00000       Uiso       1.00
        O1          O  0.3136581  0.7138423  0.5000014    0.00000       Uiso       1.00
       H54          H  0.2025887  0.6600920  0.5000014    0.00000       Uiso       1.00
       H55          H  0.3341809  0.7314868  0.5000014    0.00000       Uiso       1.00
       H56          H  0.7403730  0.3239464  0.5000014    0.00000       Uiso       1.00
        O2          O  0.8136580  0.2138427  0.5000014    0.00000       Uiso       1.00
       H57          H  0.7025887  0.1600924  0.5000014    0.00000       Uiso       1.00
       H58          H  0.8341809  0.2314872  0.5000014    0.00000       Uiso       1.00
       H59          H  0.7596269  0.1760532  0.5000014    0.00000       Uiso       1.00
        O3          O  0.6863419  0.2861569  0.5000014    0.00000       Uiso       1.00
       H60          H  0.7974112  0.3399072  0.5000014    0.00000       Uiso       1.00
       H61          H  0.6658190  0.2685124  0.5000014    0.00000       Uiso       1.00
       H62          H  0.2596270  0.6760527  0.5000014    0.00000       Uiso       1.00
        O4          O  0.1863419  0.7861565  0.5000014    0.00000       Uiso       1.00
       H63          H  0.2974112  0.8399068  0.5000014    0.00000       Uiso       1.00
       H64          H  0.1658191  0.7685120  0.5000014    0.00000       Uiso       1.00
       H65          H  0.7596269  0.8239460  0.5000014    0.00000       Uiso       1.00
        O5          O  0.6863419  0.7138423  0.5000014    0.00000       Uiso       1.00
       H66          H  0.7974112  0.6600920  0.5000014    0.00000       Uiso       1.00
       H67          H  0.6658190  0.7314868  0.5000014    0.00000       Uiso       1.00
       H68          H  0.2596270  0.3239464  0.5000014    0.00000       Uiso       1.00
        O6          O  0.1863419  0.2138427  0.5000014    0.00000       Uiso       1.00
       H69          H  0.2974112  0.1600924  0.5000014    0.00000       Uiso       1.00
       H70          H  0.1658191  0.2314872  0.5000014    0.00000       Uiso       1.00
       H71          H  0.2403730  0.1760532  0.5000014    0.00000       Uiso       1.00
        O7          O  0.3136581  0.2861569  0.5000014    0.00000       Uiso       1.00
       H72          H  0.2025887  0.3399072  0.5000014    0.00000       Uiso       1.00
       H73          H  0.3341809  0.2685124  0.5000014    0.00000       Uiso       1.00
       H74          H  0.7403730  0.6760527  0.5000014    0.00000       Uiso       1.00
        O8          O  0.8136580  0.7861565  0.5000014    0.00000       Uiso       1.00
       H75          H  0.7025887  0.8399068  0.5000014    0.00000       Uiso       1.00
       H76          H  0.8341809  0.7685120  0.5000014    0.00000       Uiso       1.00
       H77          H  0.4999999  0.9616234  0.5000014    0.00000       Uiso       1.00
       H78          H  0.0000000  0.4616238  0.5000014    0.00000       Uiso       1.00
       H79          H  0.4999999  0.0383758  0.5000014    0.00000       Uiso       1.00
       H80          H  0.0000000  0.5383754  0.5000014    0.00000       Uiso       1.00
