data_OH-TAPH-COF
_audit_creation_date              0000-00-00
_audit_creation_method            'LanYouShi'
_symmetry_space_group_name_H-M    'P1'
_cell_length_a                    25.8033009
_cell_length_b                    6.7438002
_cell_length_c                    25.8822994
_cell_angle_alpha                 90.0000000
_cell_angle_beta                  100.4100037
_cell_angle_gamma                 90.0000000
loop_
_atom_site_label
_atom_site_type_symbol
_atom_site_fract_x
_atom_site_fract_y
_atom_site_fract_z
_atom_site_U_iso_or_equiv
_atom_site_adp_type
_atom_site_occupancy
        C1          C  0.5322905  0.4999995  0.5496227    0.00000       Uiso       1.00
        C2          C  0.0464012  0.4999995  0.0365334    0.00000       Uiso       1.00
        C3          C  0.4677096  0.4999995  0.4503786    0.00000       Uiso       1.00
        C4          C  0.9535988  0.4999995  0.9634678    0.00000       Uiso       1.00
        C5          C  0.5225514  0.4999995  0.4547784    0.00000       Uiso       1.00
        C6          C  0.9507580  0.4999995  0.0167420    0.00000       Uiso       1.00
        C7          C  0.4774486  0.4999995  0.5452228    0.00000       Uiso       1.00
        C8          C  0.0492420  0.4999995  0.9832592    0.00000       Uiso       1.00
        C9          C  0.3867279  0.4999995  0.4900210    0.00000       Uiso       1.00
       C10          C  0.9974977  0.4999995  0.8869923    0.00000       Uiso       1.00
       C11          C  0.6132721  0.4999995  0.5099802    0.00000       Uiso       1.00
       C12          C  0.0025023  0.4999995  0.1130088    0.00000       Uiso       1.00
       C13          C  0.5553037  0.4999995  0.5044735    0.00000       Uiso       1.00
       C14          C  0.9982623  0.4999995  0.0547773    0.00000       Uiso       1.00
       C15          C  0.4446964  0.4999995  0.4955277    0.00000       Uiso       1.00
       C16          C  0.0017377  0.4999995  0.9452239    0.00000       Uiso       1.00
        N1          N  0.6357388  0.4999995  0.4689737    0.00000       Uiso       1.00
        N2          N  0.9621140  0.4999995  0.1362834    0.00000       Uiso       1.00
        N3          N  0.3642612  0.4999995  0.5310276    0.00000       Uiso       1.00
        N4          N  0.0378860  0.4999995  0.8637179    0.00000       Uiso       1.00
        N5          N  0.0572806  0.4999995  0.4415659    0.00000       Uiso       1.00
        N6          N  0.9427195  0.4999995  0.5584353    0.00000       Uiso       1.00
       C17          C  0.0412462  0.4999995  0.3893780    0.00000       Uiso       1.00
       C18          C  0.8902522  0.4999995  0.5434197    0.00000       Uiso       1.00
       C19          C  0.9587538  0.4999995  0.6106232    0.00000       Uiso       1.00
       C20          C  0.1097478  0.4999995  0.4565816    0.00000       Uiso       1.00
       C21          C  0.0870961  0.4999995  0.3682326    0.00000       Uiso       1.00
       C22          C  0.8700207  0.4999995  0.5896978    0.00000       Uiso       1.00
       C23          C  0.9129039  0.4999995  0.6317686    0.00000       Uiso       1.00
       C24          C  0.1299794  0.4999995  0.4103034    0.00000       Uiso       1.00
        H3          H  0.0894346  0.4999995  0.3269375    0.00000       Uiso       1.00
        H4          H  0.8288010  0.4999995  0.5928487    0.00000       Uiso       1.00
        H5          H  0.9105654  0.4999995  0.6730638    0.00000       Uiso       1.00
        H6          H  0.1711991  0.4999995  0.4071525    0.00000       Uiso       1.00
        N7          N  0.9319960  0.4999995  0.4332850    0.00000       Uiso       1.00
        N8          N  0.0680040  0.4999995  0.5667162    0.00000       Uiso       1.00
       C25          C  0.9373589  0.4999995  0.3798305    0.00000       Uiso       1.00
       C26          C  0.8786811  0.4999995  0.4396920    0.00000       Uiso       1.00
       C27          C  0.0626411  0.4999995  0.6201707    0.00000       Uiso       1.00
       C28          C  0.1213190  0.4999995  0.5603092    0.00000       Uiso       1.00
       C29          C  0.8825021  0.4999995  0.3510449    0.00000       Uiso       1.00
       C30          C  0.8488458  0.4999995  0.3853799    0.00000       Uiso       1.00
       C31          C  0.1174980  0.4999995  0.6489563    0.00000       Uiso       1.00
       C32          C  0.1511542  0.4999995  0.6146213    0.00000       Uiso       1.00
        H7          H  0.8705626  0.4999995  0.3087679    0.00000       Uiso       1.00
        H8          H  0.8063657  0.4999995  0.3742582    0.00000       Uiso       1.00
        H9          H  0.1294375  0.4999995  0.6912334    0.00000       Uiso       1.00
       H10          H  0.1936344  0.4999995  0.6257430    0.00000       Uiso       1.00
       C33          C  0.9837360  0.4999995  0.3595270    0.00000       Uiso       1.00
       C34          C  0.8592942  0.4999995  0.4864780    0.00000       Uiso       1.00
       C35          C  0.0162640  0.4999995  0.6404741    0.00000       Uiso       1.00
       C36          C  0.1407059  0.4999995  0.5135232    0.00000       Uiso       1.00
       C37          C  0.9779192  0.4999995  0.3018383    0.00000       Uiso       1.00
       C38          C  0.8015266  0.4999995  0.4817829    0.00000       Uiso       1.00
       C39          C  0.0220808  0.4999995  0.6981629    0.00000       Uiso       1.00
       C40          C  0.1984735  0.4999995  0.5182183    0.00000       Uiso       1.00
       C41          C  0.9752800  0.3201765  0.2743135    0.00000       Uiso       1.00
       C42          C  0.7739664  0.6798149  0.4796687    0.00000       Uiso       1.00
       C43          C  0.0247199  0.3201765  0.7256877    0.00000       Uiso       1.00
       C44          C  0.2260337  0.6798149  0.5203325    0.00000       Uiso       1.00
       C45          C  0.0247199  0.6798226  0.7256877    0.00000       Uiso       1.00
       C46          C  0.2260337  0.3201841  0.5203325    0.00000       Uiso       1.00
       C47          C  0.9752800  0.6798226  0.2743135    0.00000       Uiso       1.00
       C48          C  0.7739664  0.3201841  0.4796687    0.00000       Uiso       1.00
       H11          H  0.9772326  0.1808615  0.2953504    0.00000       Uiso       1.00
       H12          H  0.7950345  0.8191231  0.4812365    0.00000       Uiso       1.00
       H13          H  0.0227674  0.1808615  0.7046509    0.00000       Uiso       1.00
       H14          H  0.2049655  0.8191231  0.5187647    0.00000       Uiso       1.00
       H15          H  0.0227674  0.8191376  0.7046509    0.00000       Uiso       1.00
       H16          H  0.2049655  0.1808759  0.5187647    0.00000       Uiso       1.00
       H17          H  0.9772326  0.8191376  0.2953504    0.00000       Uiso       1.00
       H18          H  0.7950345  0.1808759  0.4812365    0.00000       Uiso       1.00
       C49          C  0.9699884  0.3205146  0.2195379    0.00000       Uiso       1.00
       C50          C  0.7191187  0.6794935  0.4753920    0.00000       Uiso       1.00
       C51          C  0.0300116  0.3205146  0.7804633    0.00000       Uiso       1.00
       C52          C  0.2808813  0.6794935  0.5246092    0.00000       Uiso       1.00
       C53          C  0.0300116  0.6794844  0.7804633    0.00000       Uiso       1.00
       C54          C  0.2808813  0.3205056  0.5246092    0.00000       Uiso       1.00
       C55          C  0.9699884  0.6794844  0.2195379    0.00000       Uiso       1.00
       C56          C  0.7191187  0.3205056  0.4753920    0.00000       Uiso       1.00
       H19          H  0.9677272  0.1823268  0.1980833    0.00000       Uiso       1.00
       H20          H  0.6976699  0.8177492  0.4735485    0.00000       Uiso       1.00
       H21          H  0.0322729  0.1823268  0.8019179    0.00000       Uiso       1.00
       H22          H  0.3023301  0.8177492  0.5264527    0.00000       Uiso       1.00
       H23          H  0.0322729  0.8176722  0.8019179    0.00000       Uiso       1.00
       H24          H  0.3023301  0.1822499  0.5264527    0.00000       Uiso       1.00
       H25          H  0.9677272  0.8176722  0.1980833    0.00000       Uiso       1.00
       H26          H  0.6976699  0.1822499  0.4735485    0.00000       Uiso       1.00
       C57          C  0.9675916  0.4999995  0.1921610    0.00000       Uiso       1.00
       C58          C  0.6916946  0.4999995  0.4734731    0.00000       Uiso       1.00
       C59          C  0.0324084  0.4999995  0.8078402    0.00000       Uiso       1.00
       C60          C  0.3083055  0.4999995  0.5265281    0.00000       Uiso       1.00
       H27          H  0.5567595  0.4999995  0.5883233    0.00000       Uiso       1.00
       H28          H  0.5394801  0.4999995  0.4194042    0.00000       Uiso       1.00
       H29          H  0.3628344  0.4999995  0.4509319    0.00000       Uiso       1.00
       H30          H  0.0834256  0.4999995  0.0639858    0.00000       Uiso       1.00
        O1          O  0.8996871  0.4999995  0.0277460    0.00000       Uiso       1.00
       H31          H  0.9583260  0.4999995  0.8629836    0.00000       Uiso       1.00
       H32          H  0.8963832  0.4999995  0.0658249    0.00000       Uiso       1.00
       H33          H  0.9613947  0.4999995  0.4621245    0.00000       Uiso       1.00
       H34          H  0.4432405  0.4999995  0.4116779    0.00000       Uiso       1.00
       H35          H  0.4605199  0.4999995  0.5805970    0.00000       Uiso       1.00
       H36          H  0.6371657  0.4999995  0.5490693    0.00000       Uiso       1.00
       H37          H  0.9165745  0.4999995  0.9360154    0.00000       Uiso       1.00
        O2          O  0.1003130  0.4999995  0.9722552    0.00000       Uiso       1.00
       H38          H  0.0416741  0.4999995  0.1370176    0.00000       Uiso       1.00
       H39          H  0.1036169  0.4999995  0.9341763    0.00000       Uiso       1.00
       H40          H  0.0386053  0.4999995  0.5378767    0.00000       Uiso       1.00
