data_ATFG-COF
_audit_creation_date              0000-00-00
_audit_creation_method            'LanYouShi'
_symmetry_space_group_name_H-M    'P1'
_cell_length_a                    15.4975004
_cell_length_b                    15.4975004
_cell_length_c                    3.5999999
_cell_angle_alpha                 90.0000000
_cell_angle_beta                  90.0000000
_cell_angle_gamma                 120.0000000
loop_
_atom_site_label
_atom_site_type_symbol
_atom_site_fract_x
_atom_site_fract_y
_atom_site_fract_z
_atom_site_U_iso_or_equiv
_atom_site_adp_type
_atom_site_occupancy
        N1          N  0.5453387  0.5397873  1.3888890    0.00000       Uiso       1.00
        N2          N  0.4546624  0.4602139  1.3888890    0.00000       Uiso       1.00
        C1          C  0.6322901  0.5378120  1.3888890    0.00000       Uiso       1.00
        C2          C  0.3677111  0.4621893  1.3888890    0.00000       Uiso       1.00
        H1          H  0.6349308  0.4730477  1.3888888    0.00000       Uiso       1.00
        H2          H  0.3650703  0.5269535  1.3888888    0.00000       Uiso       1.00
        N3          N  0.9602145  0.5055519  1.3888890    0.00000       Uiso       1.00
        N4          N  0.0397867  0.4944490  1.3888892    0.00000       Uiso       1.00
        C3          C  0.9621898  0.5944786  1.3888892    0.00000       Uiso       1.00
        C4          C  0.0378113  0.4055224  1.3888890    0.00000       Uiso       1.00
        H3          H  0.0269528  0.6618836  1.3888893    0.00000       Uiso       1.00
        H4          H  0.9730483  0.3381173  1.3888884    0.00000       Uiso       1.00
        N5          N  0.9944498  0.9546630  1.3888901    0.00000       Uiso       1.00
        N6          N  0.0055516  0.0453381  1.3888906    0.00000       Uiso       1.00
        C5          C  0.9055232  0.8677117  1.3888899    0.00000       Uiso       1.00
        C6          C  0.0944782  0.1322894  1.3888909    0.00000       Uiso       1.00
        H5          H  0.8381181  0.8650709  1.3888899    0.00000       Uiso       1.00
        H6          H  0.1618833  0.1349303  1.3888906    0.00000       Uiso       1.00
        C7          C  0.7994170  0.5642678  1.3888891    0.00000       Uiso       1.00
        C8          C  0.7285240  0.5966153  1.3888891    0.00000       Uiso       1.00
        O1          O  0.7730202  0.4801495  1.3888888    0.00000       Uiso       1.00
        C9          C  0.7648521  0.7005848  1.3888894    0.00000       Uiso       1.00
       C10          C  0.8680925  0.7714778  1.3888896    0.00000       Uiso       1.00
        O2          O  0.7071306  0.7269815  1.3888894    0.00000       Uiso       1.00
       C11          C  0.9357340  0.7351497  1.3888896    0.00000       Uiso       1.00
       C12          C  0.9033865  0.6319093  1.3888892    0.00000       Uiso       1.00
        O3          O  0.0198511  0.7928712  1.3888897    0.00000       Uiso       1.00
       C13          C  0.2005842  0.4357333  1.3888891    0.00000       Uiso       1.00
       C14          C  0.2714772  0.4033859  1.3888891    0.00000       Uiso       1.00
        O4          O  0.2269809  0.5198516  1.3888888    0.00000       Uiso       1.00
       C15          C  0.2351492  0.2994164  1.3888894    0.00000       Uiso       1.00
       C16          C  0.1319088  0.2285234  1.3888896    0.00000       Uiso       1.00
        O5          O  0.2928708  0.2730197  1.3888894    0.00000       Uiso       1.00
       C17          C  0.0642673  0.2648514  1.3888896    0.00000       Uiso       1.00
       C18          C  0.0966147  0.3680918  1.3888892    0.00000       Uiso       1.00
        O6          O  0.9801502  0.2071298  1.3888897    0.00000       Uiso       1.00
