data_PCTF-1
_audit_creation_date              0000-00-00
_audit_creation_method            'LanYouShi'
_symmetry_space_group_name_H-M    'P1'
_cell_length_a                    19.6639004
_cell_length_b                    19.6639004
_cell_length_c                    4.3151002
_cell_angle_alpha                 90.0000000
_cell_angle_beta                  90.0000000
_cell_angle_gamma                 120.0000000
loop_
_atom_site_label
_atom_site_type_symbol
_atom_site_fract_x
_atom_site_fract_y
_atom_site_fract_z
_atom_site_U_iso_or_equiv
_atom_site_adp_type
_atom_site_occupancy
        C4          C  0.2525756  0.6262881  0.5000057    0.00000       Uiso       1.00
        C4          C  0.3737124  0.6262881  0.5000057    0.00000       Uiso       1.00
        C4          C  0.3737124  0.7474248  0.5000057    0.00000       Uiso       1.00
        N4          N  0.2940862  0.5881723  0.5000057    0.00000       Uiso       1.00
        N4          N  0.4118281  0.7059143  0.5000057    0.00000       Uiso       1.00
        N4          N  0.2940862  0.7059143  0.5000057    0.00000       Uiso       1.00
        C1          C  0.1694539  0.5847272  0.5000057    0.00000       Uiso       1.00
        C2          C  0.4152733  0.5847272  0.5000057    0.00000       Uiso       1.00
        C3          C  0.4152733  0.8305466  0.5000057    0.00000       Uiso       1.00
        C4          C  0.1262582  0.5035199  0.5713127    0.00000       Uiso       1.00
        C5          C  0.4964806  0.6227388  0.5713127    0.00000       Uiso       1.00
        C6          C  0.3772617  0.8737423  0.5713127    0.00000       Uiso       1.00
        C7          C  0.4964806  0.8737423  0.4286986    0.00000       Uiso       1.00
        C8          C  0.3772617  0.5035199  0.4286986    0.00000       Uiso       1.00
        C9          C  0.1262582  0.6227388  0.4286986    0.00000       Uiso       1.00
       C10          C  0.0436320  0.5814565  0.4284146    0.00000       Uiso       1.00
       C11          C  0.4185440  0.4621760  0.4284146    0.00000       Uiso       1.00
       C12          C  0.5378245  0.9563685  0.4284146    0.00000       Uiso       1.00
       C13          C  0.4185440  0.9563685  0.5715967    0.00000       Uiso       1.00
       C14          C  0.5378245  0.5814565  0.5715967    0.00000       Uiso       1.00
       C15          C  0.0436320  0.4621760  0.5715967    0.00000       Uiso       1.00
       C16          C  0.5546918  0.2072534  0.3343937    0.00000       Uiso       1.00
       C17          C  0.5129802  0.1246113  0.3326196    0.00000       Uiso       1.00
        H1          H  0.5321139  0.2352996  0.2119719    0.00000       Uiso       1.00
        H2          H  0.4623942  0.0958488  0.2052954    0.00000       Uiso       1.00
       C18          C  0.7927471  0.3474385  0.3343937    0.00000       Uiso       1.00
       C19          C  0.8753892  0.3883689  0.3326196    0.00000       Uiso       1.00
        H3          H  0.7647009  0.2968144  0.2119719    0.00000       Uiso       1.00
        H4          H  0.9041517  0.3665455  0.2052954    0.00000       Uiso       1.00
       C20          C  0.6525620  0.4453087  0.3343937    0.00000       Uiso       1.00
       C21          C  0.6116316  0.4870203  0.3326196    0.00000       Uiso       1.00
        H5          H  0.7031861  0.4678865  0.2119719    0.00000       Uiso       1.00
        H6          H  0.6334550  0.5376063  0.2052954    0.00000       Uiso       1.00
       C22          C  0.7927471  0.4453087  0.6656176    0.00000       Uiso       1.00
       C23          C  0.8753892  0.4870203  0.6673917    0.00000       Uiso       1.00
        H7          H  0.7647009  0.4678865  0.7880394    0.00000       Uiso       1.00
        H8          H  0.9041517  0.5376063  0.7947159    0.00000       Uiso       1.00
       C24          C  0.6525620  0.2072534  0.6656176    0.00000       Uiso       1.00
       C25          C  0.6116316  0.1246113  0.6673917    0.00000       Uiso       1.00
        H9          H  0.7031862  0.2352996  0.7880394    0.00000       Uiso       1.00
       H10          H  0.6334550  0.0958488  0.7947159    0.00000       Uiso       1.00
       C26          C  0.5546918  0.3474385  0.6656176    0.00000       Uiso       1.00
       C27          C  0.5129802  0.3883689  0.6673917    0.00000       Uiso       1.00
       H11          H  0.5321139  0.2968144  0.7880394    0.00000       Uiso       1.00
       H12          H  0.4623942  0.3665455  0.7947159    0.00000       Uiso       1.00
        N1          N  0.6666670  0.3333335  0.5000057    0.00000       Uiso       1.00
       C28          C  0.6258752  0.2517498  0.5000057    0.00000       Uiso       1.00
       C29          C  0.5409499  0.0818993  0.5000057    0.00000       Uiso       1.00
       C30          C  0.7482507  0.3741253  0.5000057    0.00000       Uiso       1.00
       C31          C  0.9181011  0.4590506  0.5000057    0.00000       Uiso       1.00
       C32          C  0.6258751  0.3741253  0.5000057    0.00000       Uiso       1.00
       C33          C  0.5409499  0.4590506  0.5000057    0.00000       Uiso       1.00
        H1          H  0.1547301  0.4735177  0.6260221    0.00000       Uiso       1.00
        H1          H  0.5264828  0.6812128  0.6260221    0.00000       Uiso       1.00
        H1          H  0.3187876  0.8452704  0.6260221    0.00000       Uiso       1.00
        H1          H  0.5264828  0.8452704  0.3739892    0.00000       Uiso       1.00
        H1          H  0.3187876  0.4735177  0.3739892    0.00000       Uiso       1.00
        H1          H  0.1547301  0.6812128  0.3739892    0.00000       Uiso       1.00
       C12          C  0.0010354  0.5005179  0.5000057    0.00000       Uiso       1.00
       C12          C  0.4994825  0.5005179  0.5000057    0.00000       Uiso       1.00
       C12          C  0.4994826  0.9989651  0.5000057    0.00000       Uiso       1.00
        H1          H  0.0146907  0.4037445  0.6270499    0.00000       Uiso       1.00
        H2          H  0.0146907  0.6109467  0.3729615    0.00000       Uiso       1.00
        H1          H  0.5962560  0.6109467  0.6270499    0.00000       Uiso       1.00
        H2          H  0.3890538  0.4037445  0.3729615    0.00000       Uiso       1.00
        H1          H  0.3890538  0.9853097  0.6270499    0.00000       Uiso       1.00
        H2          H  0.5962560  0.9853097  0.3729615    0.00000       Uiso       1.00
