data_crystal
 
_cell_length_a    25.83000
_cell_length_b    25.83000
_cell_length_c    8.20000
_cell_angle_alpha 90.00000
_cell_angle_beta  90.00000
_cell_angle_gamma 120.00000
 
_symmetry_space_group_name_Hall 'P 1'
_symmetry_space_group_name_H-M  'P 1'
 
loop_
_symmetry_equiv_pos_as_xyz
 'x,y,z' 
 
loop_
_atom_site_label
_atom_site_type_symbol
_atom_site_fract_x
_atom_site_fract_y
_atom_site_fract_z
_atom_site_charge
H          H       1.28380   0.80217   0.24886   0.0000000000
H          H       1.36622   0.85560   0.29767   0.0000000000
H          H       1.33327   0.95096   0.54238   0.0000000000
H          H       1.25099   0.89875   0.50003   0.0000000000
H          H       1.14580   0.67399   0.28198   0.0000000000
H          H       1.16951   0.61710   0.33550   0.0000000000
H          H       1.29555   0.72292   0.56655   0.0000000000
H          H       1.27280   0.78064   0.51951   0.0000000000
H          H       0.93156   0.59481   0.66244   0.0000000000
H          H       0.90641   0.51207   0.66041   0.0000000000
H          H       1.02444   0.53857   0.36352   0.0000000000
H          H       1.05034   0.62102   0.35927   0.0000000000
H          H       0.93336   0.72560   0.63265   0.0000000000
H          H       0.85211   0.70136   0.58773   0.0000000000
H          H       0.83080   0.57566   0.35161   0.0000000000
H          H       0.91116   0.59813   0.39092   0.0000000000
H          H       1.08381   0.96100   0.44693   0.0000000000
H          H       1.02751   0.98670   0.47064   0.0000000000
H          H       0.92532   0.85311   0.66837   0.0000000000
H          H       0.98122   0.82556   0.65447   0.0000000000
H          H       1.20363   0.94552   0.39935   0.0000000000
H          H       1.26269   1.02445   0.46030   0.0000000000
H          H       1.16640   1.04017   0.76967   0.0000000000
H          H       1.10628   0.96012   0.71679   0.0000000000
H          H       0.87935   0.87877   0.49971   0.0000000000
H          H       1.31191   1.09400   0.53021   0.0000000000
H          H       1.40864   1.00132   0.43537   0.0000000000
H          H       1.19471   0.57062   0.39502   0.0000000000
H          H       0.99559   0.46377   0.37359   0.0000000000
H          H       0.77699   0.67201   0.54580   0.0000000000
H          H       1.46354   0.94464   0.68193   0.0000000000
H          H       1.54160   0.98533   0.79046   0.0000000000
H          H       1.56683   1.11223   0.54650   0.0000000000
H          H       1.48756   1.07177   0.44707   0.0000000000
H          H       1.37857   1.17117   0.48010   0.0000000000
H          H       1.41939   1.25540   0.50825   0.0000000000
H          H       1.31068   1.24344   0.83182   0.0000000000
H          H       1.27007   1.15960   0.80052   0.0000000000
H          H       1.60157   0.99814   0.64111   0.0000000000
H          H       1.67863   1.02315   0.54678   0.0000000000
H          H       1.71346   1.16810   0.59563   0.0000000000
H          H       1.63502   1.14263   0.68602   0.0000000000
H          H       1.45931   1.32733   0.63201   0.0000000000
H          H       1.48516   1.40725   0.55974   0.0000000000
H          H       1.34159   1.37852   0.58993   0.0000000000
H          H       1.31669   1.30009   0.66993   0.0000000000
H          H       1.84459   1.15771   0.45338   0.0000000000
H          H       1.89530   1.23702   0.37145   0.0000000000
H          H       1.77476   1.25288   0.27620   0.0000000000
H          H       1.72353   1.17267   0.35686   0.0000000000
H          H       1.72199   1.03369   0.32139   0.0000000000
H          H       1.75295   0.98065   0.34984   0.0000000000
H          H       1.84756   1.07182   0.71971   0.0000000000
H          H       1.81475   1.12240   0.69067   0.0000000000
H          H       1.48716   1.42585   0.32883   0.0000000000
H          H       1.56670   1.47879   0.25117   0.0000000000
H          H       1.55190   1.59568   0.41362   0.0000000000
H          H       1.47471   1.54316   0.49945   0.0000000000
H          H       1.43364   1.51081   0.70839   0.0000000000
H          H       1.37956   1.53981   0.72977   0.0000000000
H          H       1.29365   1.44243   0.35765   0.0000000000
H          H       1.35021   1.41609   0.33440   0.0000000000
H          H       1.35036   1.57842   0.67714   0.0000000000
H          H       1.30866   1.61906   0.63482   0.0000000000
H          H       1.20272   1.50166   0.36529   0.0000000000
H          H       1.24350   1.45934   0.40876   0.0000000000
H          H       1.92945   1.30681   0.20750   0.0000000000
H          H       1.98102   1.38949   0.26450   0.0000000000
H          H       1.86900   1.39316   0.52325   0.0000000000
H          H       1.81741   1.31132   0.46703   0.0000000000
H          H       1.77007   0.93122   0.42176   0.0000000000
H          H       1.81112   0.88786   0.41974   0.0000000000
H          H       1.92607   1.00005   0.68017   0.0000000000
H          H       1.88747   1.04426   0.67813   0.0000000000
H          H       1.63540   1.52730   0.19536   0.0000000000
H          H       1.71685   1.56599   0.26343   0.0000000000
H          H       1.69994   1.66332   0.56405   0.0000000000
H          H       1.61827   1.62442   0.50214   0.0000000000
C          C       1.07089   0.73474   0.44272   0.0000000000
C          C       1.11777   0.76033   0.41163   0.0000000000
C          C       1.14013   0.80737   0.42367   0.0000000000
C          C       1.11571   0.82935   0.46058   0.0000000000
C          C       1.06942   0.80429   0.49421   0.0000000000
C          C       1.04691   0.75645   0.48674   0.0000000000
C          C       1.11644   0.89756   0.52011   0.0000000000
C          C       1.06925   0.87313   0.53675   0.0000000000
C          C       0.98000   0.68468   0.51107   0.0000000000
C          C       1.00546   0.66327   0.48686   0.0000000000
C          C       1.18865   0.76359   0.38119   0.0000000000
C          C       1.21087   0.81114   0.38148   0.0000000000
C          C       1.03876   0.89101   0.55505   0.0000000000
C          C       1.14838   0.94533   0.54780   0.0000000000
C          C       0.93079   0.66423   0.51916   0.0000000000
C          C       0.99168   0.61560   0.50221   0.0000000000
C          C       1.25894   0.84407   0.37512   0.0000000000
C          C       1.20784   0.73376   0.38867   0.0000000000
C          C       1.29379   0.83479   0.31246   0.0000000000
C          C       1.34053   0.86494   0.34100   0.0000000000
C          C       1.35582   0.90678   0.42568   0.0000000000
C          C       1.32248   0.91846   0.47588   0.0000000000
C          C       1.27573   0.88903   0.44932   0.0000000000
C          C       1.17979   0.68581   0.34028   0.0000000000
C          C       1.19289   0.65332   0.37357   0.0000000000
C          C       1.23463   0.66579   0.45493   0.0000000000
C          C       1.26301   0.71256   0.50079   0.0000000000
C          C       1.25100   0.74592   0.46770   0.0000000000
C          C       0.95192   0.58308   0.59327   0.0000000000
C          C       0.93807   0.53635   0.59401   0.0000000000
C          C       0.96270   0.51885   0.50972   0.0000000000
C          C       1.00379   0.55066   0.42971   0.0000000000
C          C       1.01857   0.59757   0.42729   0.0000000000
C          C       0.91084   0.69147   0.57561   0.0000000000
C          C       0.86489   0.67817   0.54685   0.0000000000
C          C       0.83528   0.63656   0.46508   0.0000000000
C          C       0.85344   0.60823   0.41658   0.0000000000
C          C       0.89911   0.62043   0.44482   0.0000000000
C          C       1.05024   0.93705   0.50325   0.0000000000
C          C       1.01791   0.95145   0.51255   0.0000000000
C          C       0.97279   0.92189   0.57110   0.0000000000
C          C       0.96056   0.87674   0.62175   0.0000000000
C          C       0.99219   0.86139   0.61488   0.0000000000
C          C       1.19451   0.96598   0.48045   0.0000000000
C          C       1.22826   1.01082   0.51640   0.0000000000
C          C       1.21897   1.03854   0.61994   0.0000000000
C          C       1.17410   1.01913   0.68671   0.0000000000
C          C       1.13961   0.97421   0.65329   0.0000000000
C          C       0.89751   0.91523   0.54160   0.0000000000
C          C       1.29510   1.10854   0.60603   0.0000000000
C          C       1.42404   0.98029   0.47615   0.0000000000
C          C       1.22835   0.58951   0.45793   0.0000000000
C          C       0.96075   0.44741   0.42889   0.0000000000
C          C       0.76390   0.64075   0.47003   0.0000000000
C          C       1.32065   1.15829   0.63614   0.0000000000
C          C       1.46930   1.00461   0.55238   0.0000000000
C          C       1.48566   0.98190   0.65345   0.0000000000
C          C       1.52949   1.00539   0.72040   0.0000000000
C          C       1.56159   1.05225   0.67749   0.0000000000
C          C       1.54325   1.07644   0.58867   0.0000000000
C          C       1.49884   1.05267   0.52569   0.0000000000
C          C       1.36392   1.18665   0.56137   0.0000000000
C          C       1.38795   1.23437   0.58056   0.0000000000
C          C       1.36882   1.25707   0.67368   0.0000000000
C          C       1.32666   1.22778   0.75747   0.0000000000
C          C       1.30330   1.18021   0.73674   0.0000000000
C          C       1.38570   1.30616   0.65734   0.0000000000
C          C       1.61082   1.06807   0.67388   0.0000000000
C          C       1.62646   1.03594   0.63894   0.0000000000
C          C       1.67034   1.05053   0.57747   0.0000000000
C          C       1.70282   1.09823   0.55292   0.0000000000
C          C       1.68877   1.13028   0.60022   0.0000000000
C          C       1.64475   1.11596   0.66043   0.0000000000
C          C       1.43323   1.33866   0.62457   0.0000000000
C          C       1.44742   1.38372   0.57588   0.0000000000
C          C       1.41553   1.39988   0.55526   0.0000000000
C          C       1.36858   1.36840   0.59657   0.0000000000
C          C       1.35418   1.32361   0.64814   0.0000000000
C          C       1.47484   1.47867   0.43600   0.0000000000
C          C       1.39646   1.46216   0.51735   0.0000000000
C          C       1.76626   1.08175   0.50418   0.0000000000
C          C       1.77910   1.15891   0.42483   0.0000000000
C          C       1.82799   1.17788   0.41617   0.0000000000
C          C       1.85736   1.22258   0.36027   0.0000000000
C          C       1.83967   1.25255   0.31796   0.0000000000
C          C       1.79043   1.23154   0.30976   0.0000000000
C          C       1.76144   1.18665   0.36387   0.0000000000
C          C       1.74917   1.04109   0.41125   0.0000000000
C          C       1.76665   1.01117   0.42901   0.0000000000
C          C       1.80338   1.02092   0.53768   0.0000000000
C          C       1.82001   1.06216   0.63018   0.0000000000
C          C       1.80161   1.09117   0.61502   0.0000000000
C          C       1.50179   1.46327   0.35387   0.0000000000
C          C       1.54651   1.49404   0.30065   0.0000000000
C          C       1.56823   1.54271   0.33166   0.0000000000
C          C       1.53842   1.55831   0.39118   0.0000000000
C          C       1.49404   1.52751   0.44621   0.0000000000
C          C       1.40307   1.49655   0.62880   0.0000000000
C          C       1.37173   1.51233   0.64150   0.0000000000
C          C       1.33095   1.49407   0.54577   0.0000000000
C          C       1.32363   1.45760   0.43933   0.0000000000
C          C       1.35588   1.44297   0.42327   0.0000000000
C          C       1.30145   1.51483   0.54533   0.0000000000
C          C       1.61854   1.57205   0.34063   0.0000000000
C          C       1.86852   1.30220   0.32777   0.0000000000
C          C       1.82474   0.99218   0.54913   0.0000000000
C          C       1.31724   1.55998   0.61152   0.0000000000
C          C       1.29377   1.58375   0.58437   0.0000000000
C          C       1.25242   1.56419   0.49387   0.0000000000
C          C       1.23494   1.51847   0.43654   0.0000000000
C          C       1.25808   1.49420   0.46241   0.0000000000
C          C       1.91588   1.32608   0.27453   0.0000000000
C          C       1.94493   1.37254   0.30907   0.0000000000
C          C       1.92933   1.39836   0.39713   0.0000000000
C          C       1.88274   1.37493   0.45125   0.0000000000
C          C       1.85286   1.32882   0.41652   0.0000000000
C          C       1.80435   0.94678   0.48019   0.0000000000
C          C       1.82766   0.92207   0.47924   0.0000000000
C          C       1.87220   0.94033   0.54795   0.0000000000
C          C       1.89171   0.98433   0.62188   0.0000000000
C          C       1.86912   1.00950   0.62315   0.0000000000
C          C       1.64904   1.55777   0.27470   0.0000000000
C          C       1.69549   1.57958   0.31554   0.0000000000
C          C       1.71550   1.61798   0.42048   0.0000000000
C          C       1.68623   1.63388   0.48000   0.0000000000
C          C       1.63966   1.61230   0.44110   0.0000000000
N          N       1.13979   0.87519   0.47281   0.0000000000
N          N       1.04536   0.82490   0.53329   0.0000000000
N          N       1.00183   0.73266   0.52055   0.0000000000
N          N       1.05151   0.68885   0.44209   0.0000000000
N          N       1.14073   0.73789   0.38434   0.0000000000
N          N       1.18572   0.83335   0.40628   0.0000000000
N          N       0.94142   0.93831   0.57711   0.0000000000
N          N       1.25250   1.08467   0.65723   0.0000000000
N          N       1.40298   0.93517   0.46526   0.0000000000
N          N       1.24888   0.63355   0.49257   0.0000000000
N          N       0.94439   0.47044   0.50345   0.0000000000
N          N       0.78874   0.62228   0.42782   0.0000000000
N          N       1.42949   1.44657   0.50131   0.0000000000
N          N       1.74858   1.11299   0.48885   0.0000000000
H          H       1.28380   0.80217   0.74886   0.0000000000
H          H       1.36622   0.85560   0.79766   0.0000000000
H          H       1.33327   0.95096   1.04238   0.0000000000
H          H       1.25099   0.89875   1.00003   0.0000000000
H          H       1.14580   0.67399   0.78199   0.0000000000
H          H       1.16951   0.61710   0.83550   0.0000000000
H          H       1.29555   0.72292   1.06655   0.0000000000
H          H       1.27280   0.78064   1.01951   0.0000000000
H          H       0.93156   0.59481   1.16244   0.0000000000
H          H       0.90641   0.51207   1.16041   0.0000000000
H          H       1.02444   0.53857   0.86352   0.0000000000
H          H       1.05034   0.62102   0.85927   0.0000000000
H          H       0.93336   0.72560   1.13265   0.0000000000
H          H       0.85211   0.70136   1.08773   0.0000000000
H          H       0.83080   0.57566   0.85161   0.0000000000
H          H       0.91116   0.59813   0.89092   0.0000000000
H          H       1.08381   0.96100   0.94693   0.0000000000
H          H       1.02751   0.98670   0.97064   0.0000000000
H          H       0.92532   0.85311   1.16837   0.0000000000
H          H       0.98122   0.82556   1.15447   0.0000000000
H          H       1.20363   0.94552   0.89934   0.0000000000
H          H       1.26269   1.02445   0.96030   0.0000000000
H          H       1.16640   1.04017   1.26967   0.0000000000
H          H       1.10628   0.96012   1.21678   0.0000000000
H          H       0.87935   0.87877   0.99971   0.0000000000
H          H       1.31191   1.09400   1.03021   0.0000000000
H          H       1.40864   1.00132   0.93537   0.0000000000
H          H       1.19471   0.57062   0.89502   0.0000000000
H          H       0.99559   0.46377   0.87359   0.0000000000
H          H       0.77699   0.67201   1.04580   0.0000000000
H          H       1.46354   0.94464   1.18193   0.0000000000
H          H       1.54160   0.98533   1.29046   0.0000000000
H          H       1.56683   1.11223   1.04650   0.0000000000
H          H       1.48756   1.07177   0.94707   0.0000000000
H          H       1.37857   1.17117   0.98010   0.0000000000
H          H       1.41939   1.25540   1.00825   0.0000000000
H          H       1.31068   1.24344   1.33182   0.0000000000
H          H       1.27007   1.15960   1.30052   0.0000000000
H          H       1.60157   0.99814   1.14111   0.0000000000
H          H       1.67863   1.02315   1.04679   0.0000000000
H          H       1.71346   1.16810   1.09563   0.0000000000
H          H       1.63502   1.14263   1.18602   0.0000000000
H          H       1.45931   1.32733   1.13200   0.0000000000
H          H       1.48516   1.40725   1.05974   0.0000000000
H          H       1.34159   1.37852   1.08993   0.0000000000
H          H       1.31669   1.30009   1.16993   0.0000000000
H          H       1.84459   1.15771   0.95338   0.0000000000
H          H       1.89530   1.23702   0.87145   0.0000000000
H          H       1.77476   1.25288   0.77620   0.0000000000
H          H       1.72353   1.17267   0.85686   0.0000000000
H          H       1.72199   1.03369   0.82139   0.0000000000
H          H       1.75295   0.98065   0.84983   0.0000000000
H          H       1.84756   1.07182   1.21971   0.0000000000
H          H       1.81475   1.12240   1.19067   0.0000000000
H          H       1.48716   1.42585   0.82883   0.0000000000
H          H       1.56670   1.47879   0.75117   0.0000000000
H          H       1.55190   1.59568   0.91362   0.0000000000
H          H       1.47471   1.54316   0.99945   0.0000000000
H          H       1.43364   1.51081   1.20839   0.0000000000
H          H       1.37956   1.53981   1.22977   0.0000000000
H          H       1.29365   1.44243   0.85765   0.0000000000
H          H       1.35021   1.41609   0.83440   0.0000000000
H          H       1.35036   1.57842   1.17714   0.0000000000
H          H       1.30866   1.61906   1.13482   0.0000000000
H          H       1.20272   1.50166   0.86530   0.0000000000
H          H       1.24350   1.45934   0.90876   0.0000000000
H          H       1.92945   1.30681   0.70749   0.0000000000
H          H       1.98102   1.38949   0.76451   0.0000000000
H          H       1.86900   1.39316   1.02325   0.0000000000
H          H       1.81741   1.31132   0.96703   0.0000000000
H          H       1.77007   0.93122   0.92176   0.0000000000
H          H       1.81112   0.88786   0.91974   0.0000000000
H          H       1.92607   1.00005   1.18017   0.0000000000
H          H       1.88747   1.04426   1.17813   0.0000000000
H          H       1.63540   1.52730   0.69535   0.0000000000
H          H       1.71685   1.56599   0.76343   0.0000000000
H          H       1.69994   1.66332   1.06406   0.0000000000
H          H       1.61827   1.62442   1.00214   0.0000000000
C          C       1.07089   0.73474   0.94273   0.0000000000
C          C       1.11777   0.76033   0.91163   0.0000000000
C          C       1.14013   0.80737   0.92366   0.0000000000
C          C       1.11571   0.82935   0.96058   0.0000000000
C          C       1.06942   0.80429   0.99421   0.0000000000
C          C       1.04691   0.75645   0.98674   0.0000000000
C          C       1.11644   0.89756   1.02012   0.0000000000
C          C       1.06925   0.87313   1.03675   0.0000000000
C          C       0.98000   0.68468   1.01107   0.0000000000
C          C       1.00546   0.66327   0.98686   0.0000000000
C          C       1.18865   0.76359   0.88119   0.0000000000
C          C       1.21087   0.81114   0.88148   0.0000000000
C          C       1.03876   0.89101   1.05505   0.0000000000
C          C       1.14838   0.94533   1.04780   0.0000000000
C          C       0.93079   0.66423   1.01917   0.0000000000
C          C       0.99168   0.61560   1.00221   0.0000000000
C          C       1.25894   0.84407   0.87512   0.0000000000
C          C       1.20784   0.73376   0.88867   0.0000000000
C          C       1.29379   0.83479   0.81246   0.0000000000
C          C       1.34053   0.86494   0.84100   0.0000000000
C          C       1.35582   0.90678   0.92568   0.0000000000
C          C       1.32248   0.91846   0.97588   0.0000000000
C          C       1.27573   0.88903   0.94932   0.0000000000
C          C       1.17979   0.68581   0.84028   0.0000000000
C          C       1.19289   0.65332   0.87357   0.0000000000
C          C       1.23463   0.66579   0.95493   0.0000000000
C          C       1.26301   0.71256   1.00080   0.0000000000
C          C       1.25100   0.74592   0.96769   0.0000000000
C          C       0.95192   0.58308   1.09326   0.0000000000
C          C       0.93807   0.53635   1.09401   0.0000000000
C          C       0.96270   0.51885   1.00972   0.0000000000
C          C       1.00379   0.55066   0.92971   0.0000000000
C          C       1.01857   0.59757   0.92729   0.0000000000
C          C       0.91084   0.69147   1.07561   0.0000000000
C          C       0.86489   0.67817   1.04685   0.0000000000
C          C       0.83528   0.63656   0.96508   0.0000000000
C          C       0.85344   0.60823   0.91658   0.0000000000
C          C       0.89911   0.62043   0.94482   0.0000000000
C          C       1.05024   0.93705   1.00325   0.0000000000
C          C       1.01791   0.95145   1.01256   0.0000000000
C          C       0.97279   0.92189   1.07110   0.0000000000
C          C       0.96056   0.87674   1.12176   0.0000000000
C          C       0.99219   0.86139   1.11488   0.0000000000
C          C       1.19451   0.96598   0.98045   0.0000000000
C          C       1.22826   1.01082   1.01640   0.0000000000
C          C       1.21897   1.03854   1.11994   0.0000000000
C          C       1.17410   1.01913   1.18671   0.0000000000
C          C       1.13961   0.97421   1.15329   0.0000000000
C          C       0.89751   0.91523   1.04160   0.0000000000
C          C       1.29510   1.10854   1.10603   0.0000000000
C          C       1.42404   0.98029   0.97615   0.0000000000
C          C       1.22835   0.58951   0.95793   0.0000000000
C          C       0.96075   0.44741   0.92889   0.0000000000
C          C       0.76390   0.64075   0.97003   0.0000000000
C          C       1.32065   1.15829   1.13613   0.0000000000
C          C       1.46930   1.00461   1.05238   0.0000000000
C          C       1.48566   0.98190   1.15344   0.0000000000
C          C       1.52949   1.00539   1.22040   0.0000000000
C          C       1.56159   1.05225   1.17748   0.0000000000
C          C       1.54325   1.07644   1.08867   0.0000000000
C          C       1.49884   1.05267   1.02569   0.0000000000
C          C       1.36392   1.18665   1.06137   0.0000000000
C          C       1.38795   1.23437   1.08056   0.0000000000
C          C       1.36882   1.25707   1.17368   0.0000000000
C          C       1.32666   1.22778   1.25747   0.0000000000
C          C       1.30330   1.18021   1.23674   0.0000000000
C          C       1.38570   1.30616   1.15734   0.0000000000
C          C       1.61082   1.06807   1.17389   0.0000000000
C          C       1.62646   1.03594   1.13894   0.0000000000
C          C       1.67034   1.05053   1.07747   0.0000000000
C          C       1.70282   1.09823   1.05292   0.0000000000
C          C       1.68877   1.13028   1.10022   0.0000000000
C          C       1.64475   1.11596   1.16043   0.0000000000
C          C       1.43323   1.33866   1.12457   0.0000000000
C          C       1.44742   1.38372   1.07588   0.0000000000
C          C       1.41553   1.39988   1.05526   0.0000000000
C          C       1.36858   1.36840   1.09657   0.0000000000
C          C       1.35418   1.32361   1.14814   0.0000000000
C          C       1.47484   1.47867   0.93599   0.0000000000
C          C       1.39646   1.46216   1.01735   0.0000000000
C          C       1.76626   1.08175   1.00418   0.0000000000
C          C       1.77910   1.15891   0.92483   0.0000000000
C          C       1.82799   1.17788   0.91617   0.0000000000
C          C       1.85736   1.22258   0.86027   0.0000000000
C          C       1.83967   1.25255   0.81796   0.0000000000
C          C       1.79043   1.23154   0.80976   0.0000000000
C          C       1.76144   1.18665   0.86387   0.0000000000
C          C       1.74917   1.04109   0.91124   0.0000000000
C          C       1.76665   1.01117   0.92900   0.0000000000
C          C       1.80338   1.02092   1.03767   0.0000000000
C          C       1.82001   1.06216   1.13018   0.0000000000
C          C       1.80161   1.09117   1.11502   0.0000000000
C          C       1.50179   1.46327   0.85387   0.0000000000
C          C       1.54651   1.49404   0.80065   0.0000000000
C          C       1.56823   1.54271   0.83166   0.0000000000
C          C       1.53842   1.55831   0.89118   0.0000000000
C          C       1.49404   1.52751   0.94621   0.0000000000
C          C       1.40307   1.49655   1.12881   0.0000000000
C          C       1.37173   1.51233   1.14149   0.0000000000
C          C       1.33095   1.49407   1.04577   0.0000000000
C          C       1.32363   1.45760   0.93934   0.0000000000
C          C       1.35588   1.44297   0.92327   0.0000000000
C          C       1.30145   1.51483   1.04533   0.0000000000
C          C       1.61854   1.57205   0.84063   0.0000000000
C          C       1.86852   1.30220   0.82777   0.0000000000
C          C       1.82474   0.99218   1.04913   0.0000000000
C          C       1.31724   1.55998   1.11153   0.0000000000
C          C       1.29377   1.58375   1.08437   0.0000000000
C          C       1.25242   1.56419   0.99387   0.0000000000
C          C       1.23494   1.51847   0.93654   0.0000000000
C          C       1.25808   1.49420   0.96241   0.0000000000
C          C       1.91588   1.32608   0.77453   0.0000000000
C          C       1.94493   1.37254   0.80907   0.0000000000
C          C       1.92933   1.39836   0.89713   0.0000000000
C          C       1.88274   1.37493   0.95124   0.0000000000
C          C       1.85286   1.32882   0.91652   0.0000000000
C          C       1.80435   0.94678   0.98020   0.0000000000
C          C       1.82766   0.92207   0.97924   0.0000000000
C          C       1.87220   0.94033   1.04795   0.0000000000
C          C       1.89171   0.98433   1.12188   0.0000000000
C          C       1.86912   1.00950   1.12315   0.0000000000
C          C       1.64904   1.55777   0.77470   0.0000000000
C          C       1.69549   1.57958   0.81554   0.0000000000
C          C       1.71550   1.61798   0.92048   0.0000000000
C          C       1.68623   1.63388   0.97999   0.0000000000
C          C       1.63966   1.61230   0.94110   0.0000000000
N          N       1.13979   0.87519   0.97281   0.0000000000
N          N       1.04536   0.82490   1.03330   0.0000000000
N          N       1.00183   0.73266   1.02055   0.0000000000
N          N       1.05151   0.68885   0.94209   0.0000000000
N          N       1.14073   0.73789   0.88434   0.0000000000
N          N       1.18572   0.83335   0.90628   0.0000000000
N          N       0.94142   0.93831   1.07711   0.0000000000
N          N       1.25250   1.08467   1.15723   0.0000000000
N          N       1.40298   0.93517   0.96526   0.0000000000
N          N       1.24888   0.63355   0.99257   0.0000000000
N          N       0.94439   0.47044   1.00345   0.0000000000
N          N       0.78874   0.62228   0.92781   0.0000000000
N          N       1.42949   1.44657   1.00131   0.0000000000
N          N       1.74858   1.11299   0.98886   0.0000000000
