data_crystal

_cell_length_a    24.03200
_cell_length_b    24.03200
_cell_length_c    8.48400
_cell_angle_alpha 90.00000
_cell_angle_beta  90.00000
_cell_angle_gamma 90.00000

_space_group_name_Hall 'P 1'
_space_group_name_H-M_alt  'P 1'

loop_
_symmetry_equiv_pos_as_xyz
'x,y,z' 

loop_
_atom_site_label
_atom_site_type_symbol
_atom_site_fract_x
_atom_site_fract_y
_atom_site_fract_z
N          N       0.95650   0.14901   0.51678 
N          N       0.86746   0.18382   0.84628 
C          C       0.98362   0.04728   0.11351 
C          C       0.93354   0.04285   0.19946 
C          C       0.92261   0.07769   0.32718 
C          C       0.96192   0.11759   0.37399 
C          C       0.01118   0.12300   0.28837 
C          C       0.02232   0.08826   0.16043 
C          C       0.91162   0.15486   0.60080 
C          C       0.91348   0.18387   0.75296 
C          C       0.96222   0.20970   0.80611 
C          C       0.96276   0.23558   0.95285 
C          C       0.91472   0.23596   0.04704 
C          C       0.86690   0.20889   0.98992 
H          H       0.90416   0.00999   0.17313 
H          H       0.88502   0.07069   0.39365 
H          H       0.04222   0.15271   0.32619 
H          H       0.06282   0.09141   0.10539 
H          H       0.87225   0.13751   0.56413 
H          H       0.99939   0.21003   0.73415 
H          H       0.00043   0.25617   0.99081 
H          H       0.82937   0.20684   0.06017 
N          N       0.45650   0.64901   0.01678 
N          N       0.36746   0.68382   0.34628 
C          C       0.48362   0.54728   0.61351 
C          C       0.43354   0.54285   0.69946 
C          C       0.42261   0.57769   0.82718 
C          C       0.46192   0.61759   0.87399 
C          C       0.51118   0.62300   0.78837 
C          C       0.52232   0.58826   0.66043 
C          C       0.41162   0.65486   0.10080 
C          C       0.41348   0.68387   0.25296 
C          C       0.46222   0.70970   0.30611 
C          C       0.46276   0.73558   0.45285 
C          C       0.41472   0.73596   0.54704 
C          C       0.36690   0.70889   0.48992 
H          H       0.40416   0.50999   0.67313 
H          H       0.38502   0.57069   0.89365 
H          H       0.54222   0.65271   0.82619 
H          H       0.56282   0.59141   0.60539 
H          H       0.37225   0.63751   0.06413 
H          H       0.49939   0.71003   0.23415 
H          H       0.50043   0.75617   0.49081 
H          H       0.32937   0.70684   0.56017 
N          N       0.04350   0.85099   0.51678 
N          N       0.13254   0.81618   0.84628 
C          C       0.01638   0.95272   0.11351 
C          C       0.06646   0.95715   0.19946 
C          C       0.07739   0.92231   0.32718 
C          C       0.03808   0.88241   0.37399 
C          C       0.98882   0.87700   0.28837 
C          C       0.97768   0.91174   0.16043 
C          C       0.08838   0.84514   0.60080 
C          C       0.08652   0.81613   0.75296 
C          C       0.03778   0.79030   0.80611 
C          C       0.03724   0.76442   0.95285 
C          C       0.08528   0.76404   0.04704 
C          C       0.13310   0.79111   0.98992 
H          H       0.09584   0.99001   0.17313 
H          H       0.11498   0.92931   0.39365 
H          H       0.95778   0.84729   0.32619 
H          H       0.93718   0.90859   0.10539 
H          H       0.12775   0.86249   0.56413 
H          H       0.00061   0.78997   0.73415 
H          H       0.99957   0.74383   0.99081 
H          H       0.17063   0.79316   0.06017 
N          N       0.54350   0.35099   0.01678 
N          N       0.63254   0.31618   0.34628 
C          C       0.51638   0.45272   0.61351 
C          C       0.56646   0.45715   0.69946 
C          C       0.57739   0.42231   0.82718 
C          C       0.53808   0.38241   0.87399 
C          C       0.48882   0.37700   0.78837 
C          C       0.47768   0.41174   0.66043 
C          C       0.58838   0.34514   0.10080 
C          C       0.58652   0.31613   0.25296 
C          C       0.53778   0.29030   0.30611 
C          C       0.53724   0.26442   0.45285 
C          C       0.58528   0.26404   0.54704 
C          C       0.63310   0.29111   0.48992 
H          H       0.59584   0.49001   0.67313 
H          H       0.61498   0.42931   0.89365 
H          H       0.45778   0.34729   0.82619 
H          H       0.43718   0.40859   0.60539 
H          H       0.62775   0.36249   0.06413 
H          H       0.50061   0.28997   0.23415 
H          H       0.49957   0.24383   0.49081 
H          H       0.67063   0.29316   0.56017 
N          N       0.14901   0.04350   0.48322 
N          N       0.18382   0.13254   0.15372 
C          C       0.04728   0.01638   0.88649 
C          C       0.04285   0.06646   0.80054 
C          C       0.07769   0.07739   0.67282 
C          C       0.11759   0.03808   0.62601 
C          C       0.12300   0.98882   0.71163 
C          C       0.08826   0.97768   0.83957 
C          C       0.15486   0.08838   0.39920 
C          C       0.18387   0.08652   0.24704 
C          C       0.20970   0.03778   0.19389 
C          C       0.23558   0.03724   0.04715 
C          C       0.23596   0.08528   0.95296 
C          C       0.20889   0.13310   0.01008 
H          H       0.00999   0.09584   0.82687 
H          H       0.07069   0.11498   0.60635 
H          H       0.15271   0.95778   0.67381 
H          H       0.09141   0.93718   0.89461 
H          H       0.13751   0.12775   0.43587 
H          H       0.21003   0.00061   0.26585 
H          H       0.25617   0.99957   0.00919 
H          H       0.20684   0.17063   0.93983 
N          N       0.64901   0.54350   0.98322 
N          N       0.68382   0.63254   0.65372 
C          C       0.54728   0.51638   0.38649 
C          C       0.54285   0.56646   0.30054 
C          C       0.57769   0.57739   0.17282 
C          C       0.61759   0.53808   0.12601 
C          C       0.62300   0.48882   0.21163 
C          C       0.58826   0.47768   0.33957 
C          C       0.65486   0.58838   0.89920 
C          C       0.68387   0.58652   0.74704 
C          C       0.70970   0.53778   0.69389 
C          C       0.73558   0.53724   0.54715 
C          C       0.73596   0.58528   0.45296 
C          C       0.70889   0.63310   0.51008 
H          H       0.50999   0.59584   0.32687 
H          H       0.57069   0.61498   0.10635 
H          H       0.65271   0.45778   0.17381 
H          H       0.59141   0.43718   0.39461 
H          H       0.63751   0.62775   0.93587 
H          H       0.71003   0.50061   0.76585 
H          H       0.75617   0.49957   0.50919 
H          H       0.70684   0.67063   0.43983 
N          N       0.85099   0.95650   0.48322 
N          N       0.81618   0.86746   0.15372 
C          C       0.95272   0.98362   0.88649 
C          C       0.95715   0.93354   0.80054 
C          C       0.92231   0.92261   0.67282 
C          C       0.88241   0.96192   0.62601 
C          C       0.87700   0.01118   0.71163 
C          C       0.91174   0.02232   0.83957 
C          C       0.84514   0.91162   0.39920 
C          C       0.81613   0.91348   0.24704 
C          C       0.79030   0.96222   0.19389 
C          C       0.76442   0.96276   0.04715 
C          C       0.76404   0.91472   0.95296 
C          C       0.79111   0.86690   0.01008 
H          H       0.99001   0.90416   0.82687 
H          H       0.92931   0.88502   0.60635 
H          H       0.84729   0.04222   0.67381 
H          H       0.90859   0.06282   0.89461 
H          H       0.86249   0.87225   0.43587 
H          H       0.78997   0.99939   0.26585 
H          H       0.74383   0.00043   0.00919 
H          H       0.79316   0.82937   0.93983 
N          N       0.35099   0.45650   0.98322 
N          N       0.31618   0.36746   0.65372 
C          C       0.45272   0.48362   0.38649 
C          C       0.45715   0.43354   0.30054 
C          C       0.42231   0.42261   0.17282 
C          C       0.38241   0.46192   0.12601 
C          C       0.37700   0.51118   0.21163 
C          C       0.41174   0.52232   0.33957 
C          C       0.34514   0.41162   0.89920 
C          C       0.31613   0.41348   0.74704 
C          C       0.29030   0.46222   0.69389 
C          C       0.26442   0.46276   0.54715 
C          C       0.26404   0.41472   0.45296 
C          C       0.29111   0.36690   0.51008 
H          H       0.49001   0.40416   0.32687 
H          H       0.42931   0.38502   0.10635 
H          H       0.34729   0.54222   0.17381 
H          H       0.40859   0.56282   0.39461 
H          H       0.36249   0.37225   0.93587 
H          H       0.28997   0.49939   0.76585 
H          H       0.24383   0.50043   0.50919 
H          H       0.29316   0.32937   0.43983 
N          N       0.54350   0.14901   0.23322 
N          N       0.63254   0.18382   0.90372 
C          C       0.51638   0.04728   0.63649 
C          C       0.56646   0.04285   0.55054 
C          C       0.57739   0.07769   0.42282 
C          C       0.53808   0.11759   0.37601 
C          C       0.48882   0.12300   0.46163 
C          C       0.47768   0.08826   0.58957 
C          C       0.58838   0.15486   0.14920 
C          C       0.58652   0.18387   0.99704 
C          C       0.53778   0.20970   0.94389 
C          C       0.53724   0.23558   0.79715 
C          C       0.58528   0.23596   0.70296 
C          C       0.63310   0.20889   0.76008 
H          H       0.59584   0.00999   0.57687 
H          H       0.61498   0.07069   0.35635 
H          H       0.45778   0.15271   0.42381 
H          H       0.43718   0.09141   0.64461 
H          H       0.62775   0.13751   0.18587 
H          H       0.50061   0.21003   0.01585 
H          H       0.49957   0.25617   0.75919 
H          H       0.67063   0.20684   0.68983 
N          N       0.04350   0.64901   0.73322 
N          N       0.13254   0.68382   0.40372 
C          C       0.01638   0.54728   0.13649 
C          C       0.06646   0.54285   0.05054 
C          C       0.07739   0.57769   0.92282 
C          C       0.03808   0.61759   0.87601 
C          C       0.98882   0.62300   0.96163 
C          C       0.97768   0.58826   0.08957 
C          C       0.08838   0.65486   0.64920 
C          C       0.08652   0.68387   0.49704 
C          C       0.03778   0.70970   0.44389 
C          C       0.03724   0.73558   0.29715 
C          C       0.08528   0.73596   0.20296 
C          C       0.13310   0.70889   0.26008 
H          H       0.09584   0.50999   0.07687 
H          H       0.11498   0.57069   0.85635 
H          H       0.95778   0.65271   0.92381 
H          H       0.93718   0.59141   0.14461 
H          H       0.12775   0.63751   0.68587 
H          H       0.00061   0.71003   0.51585 
H          H       0.99957   0.75617   0.25919 
H          H       0.17063   0.70684   0.18983 
N          N       0.45650   0.85099   0.23322 
N          N       0.36746   0.81618   0.90372 
C          C       0.48362   0.95272   0.63649 
C          C       0.43354   0.95715   0.55054 
C          C       0.42261   0.92231   0.42282 
C          C       0.46192   0.88241   0.37601 
C          C       0.51118   0.87700   0.46163 
C          C       0.52232   0.91174   0.58957 
C          C       0.41162   0.84514   0.14920 
C          C       0.41348   0.81613   0.99704 
C          C       0.46222   0.79030   0.94389 
C          C       0.46276   0.76442   0.79715 
C          C       0.41472   0.76404   0.70296 
C          C       0.36690   0.79111   0.76008 
H          H       0.40416   0.99001   0.57687 
H          H       0.38502   0.92931   0.35635 
H          H       0.54222   0.84729   0.42381 
H          H       0.56282   0.90859   0.64461 
H          H       0.37225   0.86249   0.18587 
H          H       0.49939   0.78997   0.01585 
H          H       0.50043   0.74383   0.75919 
H          H       0.32937   0.79316   0.68983 
N          N       0.95650   0.35099   0.73322 
N          N       0.86746   0.31618   0.40372 
C          C       0.98362   0.45272   0.13649 
C          C       0.93354   0.45715   0.05054 
C          C       0.92261   0.42231   0.92282 
C          C       0.96192   0.38241   0.87601 
C          C       0.01118   0.37700   0.96163 
C          C       0.02232   0.41174   0.08957 
C          C       0.91162   0.34514   0.64920 
C          C       0.91348   0.31613   0.49704 
C          C       0.96222   0.29030   0.44389 
C          C       0.96276   0.26442   0.29715 
C          C       0.91472   0.26404   0.20296 
C          C       0.86690   0.29111   0.26008 
H          H       0.90416   0.49001   0.07687 
H          H       0.88502   0.42931   0.85635 
H          H       0.04222   0.34729   0.92381 
H          H       0.06282   0.40859   0.14461 
H          H       0.87225   0.36249   0.68587 
H          H       0.99939   0.28997   0.51585 
H          H       0.00043   0.24383   0.25919 
H          H       0.82937   0.29316   0.18983 
N          N       0.35099   0.04350   0.26678 
N          N       0.31618   0.13254   0.59628 
C          C       0.45272   0.01638   0.86351 
C          C       0.45715   0.06646   0.94946 
C          C       0.42231   0.07739   0.07718 
C          C       0.38241   0.03808   0.12399 
C          C       0.37700   0.98882   0.03837 
C          C       0.41174   0.97768   0.91043 
C          C       0.34514   0.08838   0.35080 
C          C       0.31613   0.08652   0.50296 
C          C       0.29030   0.03778   0.55611 
C          C       0.26442   0.03724   0.70285 
C          C       0.26404   0.08528   0.79704 
C          C       0.29111   0.13310   0.73992 
H          H       0.49001   0.09584   0.92313 
H          H       0.42931   0.11498   0.14365 
H          H       0.34729   0.95778   0.07619 
H          H       0.40859   0.93718   0.85539 
H          H       0.36249   0.12775   0.31413 
H          H       0.28997   0.00061   0.48415 
H          H       0.24383   0.99957   0.74081 
H          H       0.29316   0.17063   0.81017 
N          N       0.85099   0.54350   0.76678 
N          N       0.81618   0.63254   0.09628 
C          C       0.95272   0.51638   0.36351 
C          C       0.95715   0.56646   0.44946 
C          C       0.92231   0.57739   0.57718 
C          C       0.88241   0.53808   0.62399 
C          C       0.87700   0.48882   0.53837 
C          C       0.91174   0.47768   0.41043 
C          C       0.84514   0.58838   0.85080 
C          C       0.81613   0.58652   0.00296 
C          C       0.79030   0.53778   0.05611 
C          C       0.76442   0.53724   0.20285 
C          C       0.76404   0.58528   0.29704 
C          C       0.79111   0.63310   0.23992 
H          H       0.99001   0.59584   0.42313 
H          H       0.92931   0.61498   0.64365 
H          H       0.84729   0.45778   0.57619 
H          H       0.90859   0.43718   0.35539 
H          H       0.86249   0.62775   0.81413 
H          H       0.78997   0.50061   0.98415 
H          H       0.74383   0.49957   0.24081 
H          H       0.79316   0.67063   0.31017 
N          N       0.64901   0.95650   0.26678 
N          N       0.68382   0.86746   0.59628 
C          C       0.54728   0.98362   0.86351 
C          C       0.54285   0.93354   0.94946 
C          C       0.57769   0.92261   0.07718 
C          C       0.61759   0.96192   0.12399 
C          C       0.62300   0.01118   0.03837 
C          C       0.58826   0.02232   0.91043 
C          C       0.65486   0.91162   0.35080 
C          C       0.68387   0.91348   0.50296 
C          C       0.70970   0.96222   0.55611 
C          C       0.73558   0.96276   0.70285 
C          C       0.73596   0.91472   0.79704 
C          C       0.70889   0.86690   0.73992 
H          H       0.50999   0.90416   0.92313 
H          H       0.57069   0.88502   0.14365 
H          H       0.65271   0.04222   0.07619 
H          H       0.59141   0.06282   0.85539 
H          H       0.63751   0.87225   0.31413 
H          H       0.71003   0.99939   0.48415 
H          H       0.75617   0.00043   0.74081 
H          H       0.70684   0.82937   0.81017 
N          N       0.14901   0.45650   0.76678 
N          N       0.18382   0.36746   0.09628 
C          C       0.04728   0.48362   0.36351 
C          C       0.04285   0.43354   0.44946 
C          C       0.07769   0.42261   0.57718 
C          C       0.11759   0.46192   0.62399 
C          C       0.12300   0.51118   0.53837 
C          C       0.08826   0.52232   0.41043 
C          C       0.15486   0.41162   0.85080 
C          C       0.18387   0.41348   0.00296 
C          C       0.20970   0.46222   0.05611 
C          C       0.23558   0.46276   0.20285 
C          C       0.23596   0.41472   0.29704 
C          C       0.20889   0.36690   0.23992 
H          H       0.00999   0.40416   0.42313 
H          H       0.07069   0.38502   0.64365 
H          H       0.15271   0.54222   0.57619 
H          H       0.09141   0.56282   0.35539 
H          H       0.13751   0.37225   0.81413 
H          H       0.21003   0.49939   0.98415 
H          H       0.25617   0.50043   0.24081 
H          H       0.20684   0.32937   0.31017 
C          C       0.00000   0.00000   0.00000 
C          C       0.50000   0.50000   0.50000 
C          C       0.50000   0.00000   0.75000 
C          C       0.00000   0.50000   0.25000 
