data_crystal
 
_cell_length_a    37.33110
_cell_length_b    37.30870
_cell_length_c    7.04000
_cell_angle_alpha 90.03900
_cell_angle_beta  89.99050
_cell_angle_gamma 119.96040
 
_symmetry_space_group_name_Hall 'P 1'
_symmetry_space_group_name_H-M  'P 1'
 
loop_
_symmetry_equiv_pos_as_xyz
 'x,y,z' 
 
loop_
_atom_site_label
_atom_site_type_symbol
_atom_site_fract_x
_atom_site_fract_y
_atom_site_fract_z
_atom_site_charge
C          C       0.47744   0.51241   0.01363   0.0000000000
C          C       0.46504   0.46986   0.00222   0.0000000000
C          C       0.49323   0.45685   0.04796   0.0000000000
C          C       0.53371   0.48492   0.10856   0.0000000000
C          C       0.54622   0.52756   0.11754   0.0000000000
C          C       0.51781   0.54046   0.07466   0.0000000000
O          O       0.58547   0.55804   0.18086   0.0000000000
C          C       0.62011   0.56421   0.06927   0.0000000000
O          O       0.42622   0.43966  -0.06682   0.0000000000
C          C       0.39072   0.43334   0.03788   0.0000000000
C          C       0.56203   0.46934   0.16157   0.0000000000
C          C       0.44940   0.52804  -0.04210   0.0000000000
N          N       0.45735   0.56488   0.00675   0.0000000000
N          N       0.55004   0.43011   0.15077   0.0000000000
C          C       0.43229   0.58348  -0.03070   0.0000000000
C          C       0.57608   0.41248   0.18114   0.0000000000
C          C       0.55799   0.37122   0.23907   0.0000000000
C          C       0.58166   0.35183   0.25395   0.0000000000
C          C       0.62387   0.37300   0.20454   0.0000000000
C          C       0.64194   0.41464   0.14686   0.0000000000
C          C       0.61842   0.43423   0.13658   0.0000000000
C          C       0.44835   0.62508   0.01715   0.0000000000
C          C       0.42504   0.64463  -0.00897   0.0000000000
C          C       0.38492   0.62301  -0.08668   0.0000000000
C          C       0.36892   0.58107  -0.13524   0.0000000000
C          C       0.39199   0.56135  -0.10558   0.0000000000
C          C       0.64817   0.35105   0.20031   0.0000000000
C          C       0.36015   0.64400  -0.12093   0.0000000000
C          C       0.69063   0.37235   0.23198   0.0000000000
C          C       0.31338   0.68214  -0.20467   0.0000000000
C          C       0.48427   0.95610  -0.11660   0.0000000000
C          C       0.52633   0.98739  -0.12834   0.0000000000
C          C       0.53815   0.02852  -0.08571   0.0000000000
C          C       0.50986   0.04048  -0.02339   0.0000000000
C          C       0.46775   0.01015  -0.00948   0.0000000000
C          C       0.45519   0.96695  -0.05500   0.0000000000
O          O       0.43712   0.01812   0.05926   0.0000000000
C          C       0.43070   0.04742  -0.04402   0.0000000000
O          O       0.55756   0.97995  -0.19379   0.0000000000
C          C       0.56516   0.95206  -0.08532   0.0000000000
C          C       0.52513   0.08418   0.02993   0.0000000000
C          C       0.47026   0.91260  -0.16998   0.0000000000
N          N       0.43247   0.88369  -0.13445   0.0000000000
N          N       0.56130   0.11272  -0.02648   0.0000000000
C          C       0.41440   0.83995  -0.16513   0.0000000000
C          C       0.58127   0.15643   0.00887   0.0000000000
C          C       0.62138   0.18082  -0.05938   0.0000000000
C          C       0.64253   0.22359  -0.03293   0.0000000000
C          C       0.62623   0.24315   0.07691   0.0000000000
C          C       0.58470   0.21854   0.13862   0.0000000000
C          C       0.56219   0.17590   0.10162   0.0000000000
C          C       0.37317   0.81476  -0.11233   0.0000000000
C          C       0.35443   0.77184  -0.12255   0.0000000000
C          C       0.37632   0.75273  -0.19034   0.0000000000
C          C       0.41757   0.77818  -0.24924   0.0000000000
C          C       0.43660   0.82135  -0.23528   0.0000000000
C          C       0.65158   0.28838   0.12923   0.0000000000
C          C       0.35645   0.70667  -0.18687   0.0000000000
C          C       0.62945   0.30967   0.14605   0.0000000000
C          C       0.31661   0.62103  -0.12042   0.0000000000
C          C       0.04543   0.53208  -0.08489   0.0000000000
C          C       0.01745   0.54720  -0.08106   0.0000000000
C          C       0.97358   0.51882  -0.03413   0.0000000000
C          C       0.95903   0.47726   0.01185   0.0000000000
C          C       0.98683   0.46195   0.00370   0.0000000000
C          C       0.03065   0.49039  -0.04099   0.0000000000
O          O       0.97640   0.42178   0.05982   0.0000000000
C          C       0.94647   0.38829  -0.05275   0.0000000000
O          O       0.02795   0.58725  -0.13903   0.0000000000
C          C       0.05816   0.62094  -0.02831   0.0000000000
C          C       0.91527   0.45044   0.06858   0.0000000000
C          C       0.08984   0.55901  -0.13126   0.0000000000
N          N       0.11553   0.54515  -0.11782   0.0000000000
N          N       0.88971   0.46445   0.08328   0.0000000000
C          C       0.15955   0.56981  -0.13975   0.0000000000
C          C       0.84659   0.43905   0.13016   0.0000000000
C          C       0.81831   0.45099   0.06985   0.0000000000
C          C       0.77565   0.42370   0.08854   0.0000000000
C          C       0.76059   0.38448   0.17391   0.0000000000
C          C       0.78926   0.37600   0.25502   0.0000000000
C          C       0.83157   0.40150   0.22806   0.0000000000
C          C       0.18186   0.55065  -0.19586   0.0000000000
C          C       0.22503   0.57325  -0.20783   0.0000000000
C          C       0.24685   0.61549  -0.15882   0.0000000000
C          C       0.22419   0.63444  -0.09976   0.0000000000
C          C       0.18108   0.61195  -0.09111   0.0000000000
C          C       0.71531   0.35452   0.19337   0.0000000000
C          C       0.29292   0.63967  -0.16428   0.0000000000
C          C       0.69598   0.31065   0.15599   0.0000000000
C          C       0.37966   0.68706  -0.15183   0.0000000000
O          O       0.71930   2.29278   0.08417   0.0000000000
C          C       0.72540   2.23082   0.18343   0.0000000000
C          C       0.74308   2.27796   0.18970   0.0000000000
C          C       0.78831   2.29612   0.12748   0.0000000000
C          C       0.79359   2.25972   0.06496   0.0000000000
N          N       0.75675   2.22098   0.11817   0.0000000000
C          C       0.83367   1.26152   0.12188   0.0000000000
O          O       0.83863   1.22740   0.08475   0.0000000000
O          O       0.86192   1.29267   0.19398   0.0000000000
H          H       0.48301   0.42419   0.03592   0.0000000000
H          H       0.52796   0.57312   0.08540   0.0000000000
H          H       0.63250   0.59380  -0.00946   0.0000000000
H          H       0.61231   0.53865  -0.03261   0.0000000000
H          H       0.64481   0.56638   0.16398   0.0000000000
H          H       0.37685   0.40291   0.11013   0.0000000000
H          H       0.36744   0.43302  -0.06082   0.0000000000
H          H       0.39792   0.45768   0.14479   0.0000000000
H          H       0.59300   0.49074   0.20923   0.0000000000
H          H       0.42208   0.50811  -0.12273   0.0000000000
H          H       0.52535   0.35399   0.27281   0.0000000000
H          H       0.56677   0.32009   0.30264   0.0000000000
H          H       0.67380   0.43167   0.10014   0.0000000000
H          H       0.63290   0.46561   0.08396   0.0000000000
H          H       0.47895   0.64230   0.07859   0.0000000000
H          H       0.43839   0.67638   0.03707   0.0000000000
H          H       0.33881   0.56335  -0.20056   0.0000000000
H          H       0.37790   0.52904  -0.14309   0.0000000000
H          H       0.70523   0.40441   0.27559   0.0000000000
H          H       0.29555   0.69638  -0.24752   0.0000000000
H          H       0.57059   0.05142  -0.09790   0.0000000000
H          H       0.42278   0.94401  -0.04306   0.0000000000
H          H       0.45471   0.06434  -0.15292   0.0000000000
H          H       0.43102   0.07066   0.05500   0.0000000000
H          H       0.39982   0.03106  -0.11251   0.0000000000
H          H       0.59506   0.96985  -0.00946   0.0000000000
H          H       0.56768   0.93004  -0.18268   0.0000000000
H          H       0.54024   0.93366   0.01808   0.0000000000
H          H       0.50602   0.09199   0.11426   0.0000000000
H          H       0.49201   0.90511  -0.23326   0.0000000000
H          H       0.63586   0.16674  -0.14003   0.0000000000
H          H       0.67125   0.24135  -0.10481   0.0000000000
H          H       0.56981   0.23144   0.22412   0.0000000000
H          H       0.53076   0.15863   0.15271   0.0000000000
H          H       0.35582   0.82858  -0.05672   0.0000000000
H          H       0.32318   0.75375  -0.06964   0.0000000000
H          H       0.43532   0.76494  -0.30585   0.0000000000
H          H       0.46851   0.83960  -0.27847   0.0000000000
H          H       0.59724   0.29436   0.10511   0.0000000000
H          H       0.30101   0.58882  -0.07925   0.0000000000
H          H       0.95281   0.53120  -0.03338   0.0000000000
H          H       0.05128   0.47786  -0.04090   0.0000000000
H          H       0.96163   0.37290  -0.12512   0.0000000000
H          H       0.93135   0.39822  -0.15937   0.0000000000
H          H       0.92192   0.36517   0.04079   0.0000000000
H          H       0.08193   0.64439  -0.12368   0.0000000000
H          H       0.07399   0.61127   0.07566   0.0000000000
H          H       0.04295   0.63584   0.04765   0.0000000000
H          H       0.90402   0.41812   0.09076   0.0000000000
H          H       0.10113   0.59061  -0.17417   0.0000000000
H          H       0.82918   0.48022  -0.00256   0.0000000000
H          H       0.75461   0.43285   0.03075   0.0000000000
H          H       0.77837   0.35094   0.34971   0.0000000000
H          H       0.85227   0.39262   0.29237   0.0000000000
H          H       0.16567   0.51810  -0.23179   0.0000000000
H          H       0.24116   0.55764  -0.25698   0.0000000000
H          H       0.23972   0.66642  -0.05384   0.0000000000
H          H       0.16477   0.62709  -0.03839   0.0000000000
H          H       0.41290   0.70551  -0.14556   0.0000000000
H          H       0.69740   2.21396   0.10029   0.0000000000
H          H       0.71485   2.21700   0.32240   0.0000000000
H          H       0.74440   2.28600   0.33092   0.0000000000
H          H       0.81035   2.31345   0.24111   0.0000000000
H          H       0.79805   2.32000   0.02073   0.0000000000
H          H       0.79418   2.25966  -0.08544   0.0000000000
H          H       0.76318   2.20557   0.22535   0.0000000000
H          H       0.86668   1.23204   0.12577   0.0000000000
C          C       0.47744   0.51241   0.51362   0.0000000000
C          C       0.46504   0.46986   0.50223   0.0000000000
C          C       0.49323   0.45685   0.54796   0.0000000000
C          C       0.53371   0.48492   0.60856   0.0000000000
C          C       0.54622   0.52756   0.61754   0.0000000000
C          C       0.51781   0.54046   0.57466   0.0000000000
O          O       0.58547   0.55804   0.68086   0.0000000000
C          C       0.62011   0.56421   0.56927   0.0000000000
O          O       0.42622   0.43966   0.43318   0.0000000000
C          C       0.39072   0.43334   0.53788   0.0000000000
C          C       0.56203   0.46934   0.66157   0.0000000000
C          C       0.44940   0.52804   0.45791   0.0000000000
N          N       0.45735   0.56488   0.50675   0.0000000000
N          N       0.55004   0.43011   0.65077   0.0000000000
C          C       0.43229   0.58348   0.46931   0.0000000000
C          C       0.57608   0.41248   0.68113   0.0000000000
C          C       0.55799   0.37122   0.73907   0.0000000000
C          C       0.58166   0.35183   0.75395   0.0000000000
C          C       0.62387   0.37300   0.70454   0.0000000000
C          C       0.64194   0.41464   0.64686   0.0000000000
C          C       0.61842   0.43423   0.63658   0.0000000000
C          C       0.44835   0.62508   0.51715   0.0000000000
C          C       0.42504   0.64463   0.49103   0.0000000000
C          C       0.38492   0.62301   0.41332   0.0000000000
C          C       0.36892   0.58107   0.36477   0.0000000000
C          C       0.39199   0.56135   0.39442   0.0000000000
C          C       0.64817   0.35105   0.70031   0.0000000000
C          C       0.36015   0.64400   0.37907   0.0000000000
C          C       0.69063   0.37235   0.73198   0.0000000000
C          C       0.31338   0.68214   0.29534   0.0000000000
C          C       0.48427   0.95610   0.38340   0.0000000000
C          C       0.52633   0.98739   0.37167   0.0000000000
C          C       0.53815   0.02852   0.41430   0.0000000000
C          C       0.50986   0.04048   0.47661   0.0000000000
C          C       0.46775   0.01015   0.49052   0.0000000000
C          C       0.45519   0.96695   0.44500   0.0000000000
O          O       0.43712   0.01812   0.55926   0.0000000000
C          C       0.43070   0.04742   0.45598   0.0000000000
O          O       0.55756   0.97995   0.30621   0.0000000000
C          C       0.56516   0.95206   0.41468   0.0000000000
C          C       0.52513   0.08418   0.52993   0.0000000000
C          C       0.47026   0.91260   0.33002   0.0000000000
N          N       0.43247   0.88369   0.36556   0.0000000000
N          N       0.56130   0.11272   0.47352   0.0000000000
C          C       0.41440   0.83995   0.33487   0.0000000000
C          C       0.58127   0.15643   0.50888   0.0000000000
C          C       0.62138   0.18082   0.44063   0.0000000000
C          C       0.64253   0.22359   0.46708   0.0000000000
C          C       0.62623   0.24315   0.57691   0.0000000000
C          C       0.58470   0.21854   0.63862   0.0000000000
C          C       0.56219   0.17590   0.60162   0.0000000000
C          C       0.37317   0.81476   0.38767   0.0000000000
C          C       0.35443   0.77184   0.37745   0.0000000000
C          C       0.37632   0.75273   0.30966   0.0000000000
C          C       0.41757   0.77818   0.25077   0.0000000000
C          C       0.43660   0.82135   0.26473   0.0000000000
C          C       0.65158   0.28838   0.62924   0.0000000000
C          C       0.35645   0.70667   0.31313   0.0000000000
C          C       0.62945   0.30967   0.64605   0.0000000000
C          C       0.31661   0.62103   0.37958   0.0000000000
C          C       0.04543   0.53208   0.41512   0.0000000000
C          C       0.01745   0.54720   0.41895   0.0000000000
C          C       0.97358   0.51882   0.46587   0.0000000000
C          C       0.95903   0.47726   0.51184   0.0000000000
C          C       0.98683   0.46195   0.50370   0.0000000000
C          C       0.03065   0.49039   0.45902   0.0000000000
O          O       0.97640   0.42178   0.55982   0.0000000000
C          C       0.94647   0.38829   0.44725   0.0000000000
O          O       0.02795   0.58725   0.36098   0.0000000000
C          C       0.05816   0.62094   0.47170   0.0000000000
C          C       0.91527   0.45044   0.56858   0.0000000000
C          C       0.08984   0.55901   0.36874   0.0000000000
N          N       0.11553   0.54515   0.38218   0.0000000000
N          N       0.88971   0.46445   0.58328   0.0000000000
C          C       0.15955   0.56981   0.36026   0.0000000000
C          C       0.84659   0.43905   0.63016   0.0000000000
C          C       0.81831   0.45099   0.56985   0.0000000000
C          C       0.77565   0.42370   0.58854   0.0000000000
C          C       0.76059   0.38448   0.67392   0.0000000000
C          C       0.78926   0.37600   0.75502   0.0000000000
C          C       0.83157   0.40150   0.72806   0.0000000000
C          C       0.18186   0.55065   0.30414   0.0000000000
C          C       0.22503   0.57325   0.29217   0.0000000000
C          C       0.24685   0.61549   0.34118   0.0000000000
C          C       0.22419   0.63444   0.40024   0.0000000000
C          C       0.18108   0.61195   0.40890   0.0000000000
C          C       0.71531   0.35452   0.69337   0.0000000000
C          C       0.29292   0.63967   0.33572   0.0000000000
C          C       0.69598   0.31065   0.65599   0.0000000000
C          C       0.37966   0.68706   0.34817   0.0000000000
O          O       0.71930   2.29278   0.58417   0.0000000000
C          C       0.72540   2.23082   0.68343   0.0000000000
C          C       0.74308   2.27796   0.68970   0.0000000000
C          C       0.78831   2.29612   0.62748   0.0000000000
C          C       0.79359   2.25972   0.56496   0.0000000000
N          N       0.75675   2.22098   0.61817   0.0000000000
C          C       0.83367   1.26152   0.62189   0.0000000000
O          O       0.83863   1.22740   0.58474   0.0000000000
O          O       0.86192   1.29267   0.69398   0.0000000000
H          H       0.48301   0.42419   0.53592   0.0000000000
H          H       0.52796   0.57312   0.58539   0.0000000000
H          H       0.63250   0.59380   0.49054   0.0000000000
H          H       0.61231   0.53865   0.46739   0.0000000000
H          H       0.64481   0.56638   0.66398   0.0000000000
H          H       0.37685   0.40291   0.61013   0.0000000000
H          H       0.36744   0.43302   0.43918   0.0000000000
H          H       0.39792   0.45768   0.64479   0.0000000000
H          H       0.59300   0.49074   0.70923   0.0000000000
H          H       0.42208   0.50811   0.37728   0.0000000000
H          H       0.52535   0.35399   0.77281   0.0000000000
H          H       0.56677   0.32009   0.80264   0.0000000000
H          H       0.67380   0.43167   0.60014   0.0000000000
H          H       0.63290   0.46561   0.58396   0.0000000000
H          H       0.47895   0.64230   0.57859   0.0000000000
H          H       0.43839   0.67638   0.53707   0.0000000000
H          H       0.33881   0.56335   0.29945   0.0000000000
H          H       0.37790   0.52904   0.35691   0.0000000000
H          H       0.70523   0.40441   0.77559   0.0000000000
H          H       0.29555   0.69638   0.25248   0.0000000000
H          H       0.57059   0.05142   0.40210   0.0000000000
H          H       0.42278   0.94401   0.45694   0.0000000000
H          H       0.45471   0.06434   0.34708   0.0000000000
H          H       0.43102   0.07066   0.55501   0.0000000000
H          H       0.39982   0.03106   0.38749   0.0000000000
H          H       0.59506   0.96985   0.49053   0.0000000000
H          H       0.56768   0.93004   0.31732   0.0000000000
H          H       0.54024   0.93366   0.51808   0.0000000000
H          H       0.50602   0.09199   0.61426   0.0000000000
H          H       0.49201   0.90511   0.26674   0.0000000000
H          H       0.63586   0.16674   0.35997   0.0000000000
H          H       0.67125   0.24135   0.39519   0.0000000000
H          H       0.56981   0.23144   0.72412   0.0000000000
H          H       0.53076   0.15863   0.65272   0.0000000000
H          H       0.35582   0.82858   0.44329   0.0000000000
H          H       0.32318   0.75375   0.43036   0.0000000000
H          H       0.43532   0.76494   0.19415   0.0000000000
H          H       0.46851   0.83960   0.22153   0.0000000000
H          H       0.59724   0.29436   0.60511   0.0000000000
H          H       0.30101   0.58882   0.42075   0.0000000000
H          H       0.95281   0.53120   0.46663   0.0000000000
H          H       0.05128   0.47786   0.45911   0.0000000000
H          H       0.96163   0.37290   0.37488   0.0000000000
H          H       0.93135   0.39822   0.34064   0.0000000000
H          H       0.92192   0.36517   0.54080   0.0000000000
H          H       0.08193   0.64439   0.37632   0.0000000000
H          H       0.07399   0.61127   0.57566   0.0000000000
H          H       0.04295   0.63584   0.54765   0.0000000000
H          H       0.90402   0.41812   0.59077   0.0000000000
H          H       0.10113   0.59061   0.32583   0.0000000000
H          H       0.82918   0.48022   0.49745   0.0000000000
H          H       0.75461   0.43285   0.53075   0.0000000000
H          H       0.77837   0.35094   0.84971   0.0000000000
H          H       0.85227   0.39262   0.79237   0.0000000000
H          H       0.16567   0.51810   0.26822   0.0000000000
H          H       0.24116   0.55764   0.24302   0.0000000000
H          H       0.23972   0.66642   0.44616   0.0000000000
H          H       0.16477   0.62709   0.46162   0.0000000000
H          H       0.41290   0.70551   0.35444   0.0000000000
H          H       0.69740   2.21396   0.60028   0.0000000000
H          H       0.71485   2.21700   0.82240   0.0000000000
H          H       0.74440   2.28600   0.83092   0.0000000000
H          H       0.81035   2.31345   0.74111   0.0000000000
H          H       0.79805   2.32000   0.52073   0.0000000000
H          H       0.79418   2.25966   0.41456   0.0000000000
H          H       0.76318   2.20557   0.72535   0.0000000000
H          H       0.86668   1.23204   0.62578   0.0000000000
