data_crystal
 
_cell_length_a    37.30080
_cell_length_b    37.30520
_cell_length_c    7.06000
_cell_angle_alpha 90.01240
_cell_angle_beta  89.98650
_cell_angle_gamma 120.01550
 
_symmetry_space_group_name_Hall 'P 1'
_symmetry_space_group_name_H-M  'P 1'
 
loop_
_symmetry_equiv_pos_as_xyz
 'x,y,z' 
 
loop_
_atom_site_label
_atom_site_type_symbol
_atom_site_fract_x
_atom_site_fract_y
_atom_site_fract_z
_atom_site_charge
C          C       0.47701   0.51759   0.10530   0.0000000000
C          C       0.46338   0.47478   0.08532   0.0000000000
C          C       0.49121   0.46048   0.11618   0.0000000000
C          C       0.53192   0.48716   0.17734   0.0000000000
C          C       0.54484   0.52918   0.20765   0.0000000000
C          C       0.51747   0.54401   0.17164   0.0000000000
O          O       0.58314   0.55494   0.29408   0.0000000000
C          C       0.61172   0.59021   0.18710   0.0000000000
O          O       0.42372   0.44561   0.02048   0.0000000000
C          C       0.38920   0.44002   0.13124   0.0000000000
C          C       0.56134   0.47165   0.20515   0.0000000000
C          C       0.44987   0.53493   0.05623   0.0000000000
N          N       0.46241   0.57413   0.07628   0.0000000000
N          N       0.55026   0.43318   0.17058   0.0000000000
C          C       0.43682   0.59233   0.04417   0.0000000000
C          C       0.57559   0.41404   0.18132   0.0000000000
C          C       0.55790   0.37249   0.12689   0.0000000000
C          C       0.58143   0.35276   0.12294   0.0000000000
C          C       0.62346   0.37413   0.17550   0.0000000000
C          C       0.64091   0.41556   0.23553   0.0000000000
C          C       0.61742   0.43537   0.23803   0.0000000000
C          C       0.45492   0.63302  -0.02235   0.0000000000
C          C       0.43090   0.65179  -0.05167   0.0000000000
C          C       0.38825   0.63084  -0.00739   0.0000000000
C          C       0.37073   0.59032   0.06667   0.0000000000
C          C       0.39451   0.57119   0.08970   0.0000000000
C          C       0.64943   0.35401   0.15890   0.0000000000
C          C       0.36211   0.65050  -0.04385   0.0000000000
C          C       0.69044   0.37692   0.09955   0.0000000000
C          C       0.31238   0.68729  -0.13145   0.0000000000
C          C       0.49256   0.96414  -0.13492   0.0000000000
C          C       0.53402   0.99712  -0.13998   0.0000000000
C          C       0.54250   0.03739  -0.10017   0.0000000000
C          C       0.51098   0.04608  -0.05103   0.0000000000
C          C       0.46940   0.01344  -0.05576   0.0000000000
C          C       0.46097   0.97319  -0.09322   0.0000000000
O          O       0.43576   0.01814  -0.00196   0.0000000000
C          C       0.42747   0.04494  -0.11480   0.0000000000
O          O       0.56759   0.99235  -0.19475   0.0000000000
C          C       0.57564   0.96491  -0.08557   0.0000000000
C          C       0.52262   0.08872   0.00911   0.0000000000
C          C       0.48090   0.92024  -0.16640   0.0000000000
N          N       0.44606   0.89179  -0.09667   0.0000000000
N          N       0.56024   0.11385   0.06359   0.0000000000
C          C       0.42725   0.84765  -0.09780   0.0000000000
C          C       0.57806   0.15668   0.11332   0.0000000000
C          C       0.61494   0.17470   0.21438   0.0000000000
C          C       0.63691   0.21722   0.24413   0.0000000000
C          C       0.62727   0.24403   0.14874   0.0000000000
C          C       0.58780   0.22549   0.06052   0.0000000000
C          C       0.56309   0.18219   0.04512   0.0000000000
C          C       0.38928   0.82602  -0.00747   0.0000000000
C          C       0.36902   0.78327   0.00347   0.0000000000
C          C       0.38174   0.75981  -0.09878   0.0000000000
C          C       0.42186   0.78163  -0.18063   0.0000000000
C          C       0.44481   0.82538  -0.17838   0.0000000000
C          C       0.65461   0.29067   0.15529   0.0000000000
C          C       0.35663   0.71314  -0.09484   0.0000000000
C          C       0.63270   0.31173   0.19251   0.0000000000
C          C       0.31961   0.62611  -0.07691   0.0000000000
C          C       0.04755   0.52485  -0.12684   0.0000000000
C          C       0.02142   0.54236  -0.12897   0.0000000000
C          C       0.97915   0.51724  -0.09169   0.0000000000
C          C       0.96190   0.47520  -0.04512   0.0000000000
C          C       0.98796   0.45762  -0.04416   0.0000000000
C          C       0.03025   0.48274  -0.08138   0.0000000000
O          O       0.97450   0.41653   0.00966   0.0000000000
C          C       0.94277   0.38421  -0.10164   0.0000000000
O          O       0.03483   0.58345  -0.18258   0.0000000000
C          C       0.06629   0.61581  -0.07046   0.0000000000
C          C       0.91719   0.45035   0.00047   0.0000000000
C          C       0.09252   0.55004  -0.16647   0.0000000000
N          N       0.11765   0.53606  -0.13390   0.0000000000
N          N       0.89245   0.46529  -0.01784   0.0000000000
C          C       0.16181   0.56257  -0.13464   0.0000000000
C          C       0.84832   0.43987  -0.00112   0.0000000000
C          C       0.82485   0.45552   0.08105   0.0000000000
C          C       0.78198   0.42982   0.10542   0.0000000000
C          C       0.76125   0.38845   0.03800   0.0000000000
C          C       0.78505   0.37550  -0.06425   0.0000000000
C          C       0.82789   0.39992  -0.07729   0.0000000000
C          C       0.18772   0.54850  -0.20508   0.0000000000
C          C       0.23089   0.57477  -0.20491   0.0000000000
C          C       0.24878   0.61493  -0.12618   0.0000000000
C          C       0.22245   0.62683  -0.04217   0.0000000000
C          C       0.17965   0.60185  -0.05147   0.0000000000
C          C       0.71583   0.35928   0.08049   0.0000000000
C          C       0.29460   0.64347  -0.11484   0.0000000000
C          C       0.69844   0.31536   0.10575   0.0000000000
C          C       0.37953   0.69361  -0.04695   0.0000000000
O          O       0.72604   2.30058   0.05974   0.0000000000
C          C       0.72568   2.26501   0.13585   0.0000000000
C          C       0.76499   2.26228   0.08383   0.0000000000
N          N       0.76566   2.22548   0.15422   0.0000000000
C          C       0.80690   2.23554   0.21738   0.0000000000
C          C       0.83444   2.28228   0.19939   0.0000000000
C          C       0.80657   2.29954   0.14050   0.0000000000
C          C       0.73470   2.18493   0.13251   0.0000000000
O          O       0.74499   2.15300   0.13435   0.0000000000
C          C       0.71498   2.10825   0.18136   0.0000000000
C          C       0.66395   2.08901   0.14627   0.0000000000
C          C       0.73392   2.07620   0.14607   0.0000000000
C          C       0.71757   2.11112   0.34429   0.0000000000
O          O       0.69915   2.17660   0.10597   0.0000000000
O          O       1.28572   1.70054  -0.21374   0.0000000000
C          C       1.28129   1.73329  -0.13040   0.0000000000
C          C       1.24279   1.73739  -0.19032   0.0000000000
C          C       1.20006   1.70179  -0.13622   0.0000000000
C          C       1.17373   1.72139  -0.09309   0.0000000000
C          C       1.20377   1.76703  -0.05458   0.0000000000
N          N       1.24440   1.77564  -0.12195   0.0000000000
C          C       1.27572   1.81503  -0.17084   0.0000000000
O          O       1.27687   1.85157  -0.10129   0.0000000000
C          C       1.28490   1.88495  -0.23042   0.0000000000
C          C       1.24087   1.86763  -0.31893   0.0000000000
C          C       1.32909   1.89931  -0.32003   0.0000000000
C          C       1.29232   1.92765  -0.15318   0.0000000000
O          O       1.30397   1.81827  -0.26872   0.0000000000
H          H       0.48059   0.42801   0.09244   0.0000000000
H          H       0.52770   0.57623   0.19959   0.0000000000
H          H       0.59667   0.60555   0.11369   0.0000000000
H          H       0.62796   0.58076   0.08472   0.0000000000
H          H       0.63552   0.61322   0.28370   0.0000000000
H          H       0.37498   0.40936   0.20167   0.0000000000
H          H       0.36560   0.44042   0.03728   0.0000000000
H          H       0.39765   0.46447   0.23922   0.0000000000
H          H       0.59261   0.49342   0.24825   0.0000000000
H          H       0.41945   0.51483  -0.00151   0.0000000000
H          H       0.52588   0.35561   0.08172   0.0000000000
H          H       0.56698   0.32123   0.07155   0.0000000000
H          H       0.67287   0.43281   0.28110   0.0000000000
H          H       0.63243   0.46720   0.28425   0.0000000000
H          H       0.48759   0.64988  -0.05665   0.0000000000
H          H       0.44588   0.68238  -0.11364   0.0000000000
H          H       0.33880   0.57333   0.11196   0.0000000000
H          H       0.38010   0.54036   0.14950   0.0000000000
H          H       0.70254   0.40906   0.06241   0.0000000000
H          H       0.57446   0.06211  -0.10521   0.0000000000
H          H       0.42891   0.94864  -0.08919   0.0000000000
H          H       0.39752   0.02618  -0.18915   0.0000000000
H          H       0.45214   0.06280  -0.21985   0.0000000000
H          H       0.42457   0.06729  -0.02173   0.0000000000
H          H       0.57776   0.94241  -0.18077   0.0000000000
H          H       0.55138   0.94724   0.02099   0.0000000000
H          H       0.60590   0.98315  -0.01298   0.0000000000
H          H       0.50014   0.09879   0.01230   0.0000000000
H          H       0.50131   0.91212  -0.23892   0.0000000000
H          H       0.62583   0.15544   0.27737   0.0000000000
H          H       0.66090   0.22875   0.34529   0.0000000000
H          H       0.57687   0.24438  -0.00568   0.0000000000
H          H       0.53450   0.16934  -0.03417   0.0000000000
H          H       0.37652   0.84268   0.06519   0.0000000000
H          H       0.34358   0.76844   0.09619   0.0000000000
H          H       0.43496   0.76501  -0.25062   0.0000000000
H          H       0.47492   0.84125  -0.24515   0.0000000000
H          H       0.60099   0.29435   0.24139   0.0000000000
H          H       0.30536   0.59286  -0.07203   0.0000000000
H          H       0.95977   0.53122  -0.09718   0.0000000000
H          H       0.04965   0.46880  -0.07573   0.0000000000
H          H       0.95586   0.36712  -0.17569   0.0000000000
H          H       0.92901   0.39578  -0.20675   0.0000000000
H          H       0.91758   0.36209  -0.00762   0.0000000000
H          H       0.09151   0.63807  -0.16395   0.0000000000
H          H       0.08006   0.60433   0.03514   0.0000000000
H          H       0.05294   0.63271   0.00323   0.0000000000
H          H       0.90445   0.41868   0.04581   0.0000000000
H          H       0.10522   0.58159  -0.21382   0.0000000000
H          H       0.84006   0.48679   0.13621   0.0000000000
H          H       0.76575   0.44204   0.18542   0.0000000000
H          H       0.77056   0.34748  -0.14484   0.0000000000
H          H       0.84499   0.38849  -0.15618   0.0000000000
H          H       0.17447   0.51783  -0.26585   0.0000000000
H          H       0.25000   0.56387  -0.26930   0.0000000000
H          H       0.23539   0.65470   0.04031   0.0000000000
H          H       0.16037   0.61217   0.01631   0.0000000000
H          H       0.41175   0.71269  -0.00882   0.0000000000
H          H       0.69975   2.23778   0.07472   0.0000000000
H          H       0.72255   2.26566   0.28482   0.0000000000
H          H       0.76607   2.26040  -0.06490   0.0000000000
H          H       0.81959   2.21879   0.13758   0.0000000000
H          H       0.80512   2.22536   0.36195   0.0000000000
H          H       0.86015   2.28941   0.10191   0.0000000000
H          H       0.85076   2.29753   0.32812   0.0000000000
H          H       0.82204   2.32336   0.03147   0.0000000000
H          H       0.80190   2.31613   0.25543   0.0000000000
H          H       0.64615   2.05619   0.19431   0.0000000000
H          H       0.65047   2.08702   0.00694   0.0000000000
H          H       0.65109   2.10636   0.22062   0.0000000000
H          H       0.74071   2.06842   0.00611   0.0000000000
H          H       0.71255   2.04462   0.20267   0.0000000000
H          H       0.76512   2.08788   0.21048   0.0000000000
H          H       0.70585   2.13229   0.38381   0.0000000000
H          H       0.75157   2.12497   0.38427   0.0000000000
H          H       0.69635   2.07835   0.39106   0.0000000000
H          H       1.30769   1.76231  -0.17042   0.0000000000
H          H       1.28202   1.73003   0.01730   0.0000000000
H          H       1.24199   1.73942  -0.33844   0.0000000000
H          H       1.18441   1.67643  -0.23871   0.0000000000
H          H       1.20275   1.68658  -0.01210   0.0000000000
H          H       1.15172   1.70402   0.01946   0.0000000000
H          H       1.15316   1.71918  -0.20804   0.0000000000
H          H       1.20472   1.77255   0.09490   0.0000000000
H          H       1.19335   1.78693  -0.12387   0.0000000000
H          H       1.22816   1.83792  -0.38960   0.0000000000
H          H       1.23370   1.88881  -0.39346   0.0000000000
H          H       1.21854   1.85910  -0.20034   0.0000000000
H          H       1.33262   1.87967  -0.42329   0.0000000000
H          H       1.34970   1.89980  -0.20667   0.0000000000
H          H       1.34758   1.93187  -0.36517   0.0000000000
H          H       1.29781   1.94809  -0.27670   0.0000000000
H          H       1.32091   1.94644  -0.07440   0.0000000000
H          H       1.26622   1.92927  -0.09171   0.0000000000
C          C       0.47701   0.51759   0.60530   0.0000000000
C          C       0.46338   0.47478   0.58533   0.0000000000
C          C       0.49121   0.46048   0.61619   0.0000000000
C          C       0.53192   0.48716   0.67734   0.0000000000
C          C       0.54484   0.52918   0.70765   0.0000000000
C          C       0.51747   0.54401   0.67164   0.0000000000
O          O       0.58314   0.55494   0.79408   0.0000000000
C          C       0.61172   0.59021   0.68710   0.0000000000
O          O       0.42372   0.44561   0.52048   0.0000000000
C          C       0.38920   0.44002   0.63124   0.0000000000
C          C       0.56134   0.47165   0.70515   0.0000000000
C          C       0.44987   0.53493   0.55623   0.0000000000
N          N       0.46241   0.57413   0.57628   0.0000000000
N          N       0.55026   0.43318   0.67058   0.0000000000
C          C       0.43682   0.59233   0.54417   0.0000000000
C          C       0.57559   0.41404   0.68132   0.0000000000
C          C       0.55790   0.37249   0.62689   0.0000000000
C          C       0.58143   0.35276   0.62294   0.0000000000
C          C       0.62346   0.37413   0.67550   0.0000000000
C          C       0.64091   0.41556   0.73553   0.0000000000
C          C       0.61742   0.43537   0.73803   0.0000000000
C          C       0.45492   0.63302   0.47765   0.0000000000
C          C       0.43090   0.65179   0.44833   0.0000000000
C          C       0.38825   0.63084   0.49262   0.0000000000
C          C       0.37073   0.59032   0.56668   0.0000000000
C          C       0.39451   0.57119   0.58971   0.0000000000
C          C       0.64943   0.35401   0.65890   0.0000000000
C          C       0.36211   0.65050   0.45615   0.0000000000
C          C       0.69044   0.37692   0.59955   0.0000000000
C          C       0.31238   0.68729   0.36855   0.0000000000
C          C       0.49256   0.96414   0.36507   0.0000000000
C          C       0.53402   0.99712   0.36002   0.0000000000
C          C       0.54250   0.03739   0.39983   0.0000000000
C          C       0.51098   0.04608   0.44898   0.0000000000
C          C       0.46940   0.01344   0.44424   0.0000000000
C          C       0.46097   0.97319   0.40678   0.0000000000
O          O       0.43576   0.01814   0.49804   0.0000000000
C          C       0.42747   0.04494   0.38520   0.0000000000
O          O       0.56759   0.99235   0.30526   0.0000000000
C          C       0.57564   0.96491   0.41443   0.0000000000
C          C       0.52262   0.08872   0.50911   0.0000000000
C          C       0.48090   0.92024   0.33360   0.0000000000
N          N       0.44606   0.89179   0.40333   0.0000000000
N          N       0.56024   0.11385   0.56359   0.0000000000
C          C       0.42725   0.84765   0.40220   0.0000000000
C          C       0.57806   0.15668   0.61332   0.0000000000
C          C       0.61494   0.17470   0.71439   0.0000000000
C          C       0.63691   0.21722   0.74413   0.0000000000
C          C       0.62727   0.24403   0.64875   0.0000000000
C          C       0.58780   0.22549   0.56051   0.0000000000
C          C       0.56309   0.18219   0.54512   0.0000000000
C          C       0.38928   0.82602   0.49253   0.0000000000
C          C       0.36902   0.78327   0.50348   0.0000000000
C          C       0.38174   0.75981   0.40122   0.0000000000
C          C       0.42186   0.78163   0.31936   0.0000000000
C          C       0.44481   0.82538   0.32162   0.0000000000
C          C       0.65461   0.29067   0.65529   0.0000000000
C          C       0.35663   0.71314   0.40516   0.0000000000
C          C       0.63270   0.31173   0.69251   0.0000000000
C          C       0.31961   0.62611   0.42308   0.0000000000
C          C       0.04755   0.52485   0.37316   0.0000000000
C          C       0.02142   0.54236   0.37103   0.0000000000
C          C       0.97915   0.51724   0.40831   0.0000000000
C          C       0.96190   0.47520   0.45487   0.0000000000
C          C       0.98796   0.45762   0.45584   0.0000000000
C          C       0.03025   0.48274   0.41862   0.0000000000
O          O       0.97450   0.41653   0.50967   0.0000000000
C          C       0.94277   0.38421   0.39836   0.0000000000
O          O       0.03483   0.58345   0.31742   0.0000000000
C          C       0.06629   0.61581   0.42955   0.0000000000
C          C       0.91719   0.45035   0.50048   0.0000000000
C          C       0.09252   0.55004   0.33354   0.0000000000
N          N       0.11765   0.53606   0.36609   0.0000000000
N          N       0.89245   0.46529   0.48216   0.0000000000
C          C       0.16181   0.56257   0.36536   0.0000000000
C          C       0.84832   0.43987   0.49888   0.0000000000
C          C       0.82485   0.45552   0.58104   0.0000000000
C          C       0.78198   0.42982   0.60542   0.0000000000
C          C       0.76125   0.38845   0.53800   0.0000000000
C          C       0.78505   0.37550   0.43575   0.0000000000
C          C       0.82789   0.39992   0.42271   0.0000000000
C          C       0.18772   0.54850   0.29492   0.0000000000
C          C       0.23089   0.57477   0.29509   0.0000000000
C          C       0.24878   0.61493   0.37382   0.0000000000
C          C       0.22245   0.62683   0.45783   0.0000000000
C          C       0.17965   0.60185   0.44852   0.0000000000
C          C       0.71583   0.35928   0.58049   0.0000000000
C          C       0.29460   0.64347   0.38516   0.0000000000
C          C       0.69844   0.31536   0.60574   0.0000000000
C          C       0.37953   0.69361   0.45305   0.0000000000
O          O       0.72604   2.30058   0.55974   0.0000000000
C          C       0.72568   2.26501   0.63585   0.0000000000
C          C       0.76499   2.26228   0.58383   0.0000000000
N          N       0.76566   2.22548   0.65421   0.0000000000
C          C       0.80690   2.23554   0.71737   0.0000000000
C          C       0.83444   2.28228   0.69939   0.0000000000
C          C       0.80657   2.29954   0.64050   0.0000000000
C          C       0.73470   2.18493   0.63250   0.0000000000
O          O       0.74499   2.15300   0.63435   0.0000000000
C          C       0.71498   2.10825   0.68136   0.0000000000
C          C       0.66395   2.08901   0.64626   0.0000000000
C          C       0.73392   2.07620   0.64607   0.0000000000
C          C       0.71757   2.11112   0.84429   0.0000000000
O          O       0.69915   2.17660   0.60597   0.0000000000
O          O       1.28572   1.70054   0.28625   0.0000000000
C          C       1.28129   1.73329   0.36960   0.0000000000
C          C       1.24279   1.73739   0.30969   0.0000000000
C          C       1.20006   1.70179   0.36378   0.0000000000
C          C       1.17373   1.72139   0.40691   0.0000000000
C          C       1.20377   1.76703   0.44542   0.0000000000
N          N       1.24440   1.77564   0.37805   0.0000000000
C          C       1.27572   1.81503   0.32916   0.0000000000
O          O       1.27687   1.85157   0.39870   0.0000000000
C          C       1.28490   1.88495   0.26958   0.0000000000
C          C       1.24087   1.86763   0.18107   0.0000000000
C          C       1.32909   1.89931   0.17997   0.0000000000
C          C       1.29232   1.92765   0.34682   0.0000000000
O          O       1.30397   1.81827   0.23128   0.0000000000
H          H       0.48059   0.42801   0.59244   0.0000000000
H          H       0.52770   0.57623   0.69958   0.0000000000
H          H       0.59667   0.60555   0.61369   0.0000000000
H          H       0.62796   0.58076   0.58472   0.0000000000
H          H       0.63552   0.61322   0.78370   0.0000000000
H          H       0.37498   0.40936   0.70167   0.0000000000
H          H       0.36560   0.44042   0.53727   0.0000000000
H          H       0.39765   0.46447   0.73922   0.0000000000
H          H       0.59261   0.49342   0.74825   0.0000000000
H          H       0.41945   0.51483   0.49849   0.0000000000
H          H       0.52588   0.35561   0.58172   0.0000000000
H          H       0.56698   0.32123   0.57155   0.0000000000
H          H       0.67287   0.43281   0.78110   0.0000000000
H          H       0.63243   0.46720   0.78425   0.0000000000
H          H       0.48759   0.64988   0.44335   0.0000000000
H          H       0.44588   0.68238   0.38636   0.0000000000
H          H       0.33880   0.57333   0.61196   0.0000000000
H          H       0.38010   0.54036   0.64950   0.0000000000
H          H       0.70254   0.40906   0.56240   0.0000000000
H          H       0.57446   0.06211   0.39479   0.0000000000
H          H       0.42891   0.94864   0.41081   0.0000000000
H          H       0.39752   0.02618   0.31085   0.0000000000
H          H       0.45214   0.06280   0.28015   0.0000000000
H          H       0.42457   0.06729   0.47827   0.0000000000
H          H       0.57776   0.94241   0.31923   0.0000000000
H          H       0.55138   0.94724   0.52099   0.0000000000
H          H       0.60590   0.98315   0.48702   0.0000000000
H          H       0.50014   0.09879   0.51230   0.0000000000
H          H       0.50131   0.91212   0.26108   0.0000000000
H          H       0.62583   0.15544   0.77737   0.0000000000
H          H       0.66090   0.22875   0.84529   0.0000000000
H          H       0.57687   0.24438   0.49433   0.0000000000
H          H       0.53450   0.16934   0.46583   0.0000000000
H          H       0.37652   0.84268   0.56519   0.0000000000
H          H       0.34358   0.76844   0.59619   0.0000000000
H          H       0.43496   0.76501   0.24938   0.0000000000
H          H       0.47492   0.84125   0.25485   0.0000000000
H          H       0.60099   0.29435   0.74139   0.0000000000
H          H       0.30536   0.59286   0.42797   0.0000000000
H          H       0.95977   0.53122   0.40282   0.0000000000
H          H       0.04965   0.46880   0.42427   0.0000000000
H          H       0.95586   0.36712   0.32431   0.0000000000
H          H       0.92901   0.39578   0.29325   0.0000000000
H          H       0.91758   0.36209   0.49239   0.0000000000
H          H       0.09151   0.63807   0.33605   0.0000000000
H          H       0.08006   0.60433   0.53514   0.0000000000
H          H       0.05294   0.63271   0.50323   0.0000000000
H          H       0.90445   0.41868   0.54581   0.0000000000
H          H       0.10522   0.58159   0.28618   0.0000000000
H          H       0.84006   0.48679   0.63621   0.0000000000
H          H       0.76575   0.44204   0.68542   0.0000000000
H          H       0.77056   0.34748   0.35516   0.0000000000
H          H       0.84499   0.38849   0.34382   0.0000000000
H          H       0.17447   0.51783   0.23415   0.0000000000
H          H       0.25000   0.56387   0.23070   0.0000000000
H          H       0.23539   0.65470   0.54031   0.0000000000
H          H       0.16037   0.61217   0.51631   0.0000000000
H          H       0.41175   0.71269   0.49118   0.0000000000
H          H       0.69975   2.23778   0.57472   0.0000000000
H          H       0.72255   2.26566   0.78482   0.0000000000
H          H       0.76607   2.26040   0.43510   0.0000000000
H          H       0.81959   2.21879   0.63758   0.0000000000
H          H       0.80512   2.22536   0.86195   0.0000000000
H          H       0.86015   2.28941   0.60191   0.0000000000
H          H       0.85076   2.29753   0.82812   0.0000000000
H          H       0.82204   2.32336   0.53147   0.0000000000
H          H       0.80190   2.31613   0.75543   0.0000000000
H          H       0.64615   2.05619   0.69431   0.0000000000
H          H       0.65047   2.08702   0.50694   0.0000000000
H          H       0.65109   2.10636   0.72062   0.0000000000
H          H       0.74071   2.06842   0.50611   0.0000000000
H          H       0.71255   2.04462   0.70267   0.0000000000
H          H       0.76512   2.08788   0.71048   0.0000000000
H          H       0.70585   2.13229   0.88381   0.0000000000
H          H       0.75157   2.12497   0.88426   0.0000000000
H          H       0.69635   2.07835   0.89106   0.0000000000
H          H       1.30769   1.76231   0.32958   0.0000000000
H          H       1.28202   1.73003   0.51730   0.0000000000
H          H       1.24199   1.73942   0.16156   0.0000000000
H          H       1.18441   1.67643   0.26129   0.0000000000
H          H       1.20275   1.68658   0.48790   0.0000000000
H          H       1.15172   1.70402   0.51946   0.0000000000
H          H       1.15316   1.71918   0.29196   0.0000000000
H          H       1.20472   1.77255   0.59490   0.0000000000
H          H       1.19335   1.78693   0.37613   0.0000000000
H          H       1.22816   1.83792   0.11040   0.0000000000
H          H       1.23370   1.88881   0.10654   0.0000000000
H          H       1.21854   1.85910   0.29966   0.0000000000
H          H       1.33262   1.87967   0.07671   0.0000000000
H          H       1.34970   1.89980   0.29333   0.0000000000
H          H       1.34758   1.93187   0.13483   0.0000000000
H          H       1.29781   1.94809   0.22330   0.0000000000
H          H       1.32091   1.94644   0.42560   0.0000000000
H          H       1.26622   1.92927   0.40829   0.0000000000
