data_crystal
 
_cell_length_a    37.71500
_cell_length_b    37.69100
_cell_length_c    7.10000
_cell_angle_alpha 90.01170
_cell_angle_beta  89.98440
_cell_angle_gamma 120.01000
 
_symmetry_space_group_name_Hall 'P 1'
_symmetry_space_group_name_H-M  'P 1'
 
loop_
_symmetry_equiv_pos_as_xyz
 'x,y,z' 
 
loop_
_atom_site_label
_atom_site_type_symbol
_atom_site_fract_x
_atom_site_fract_y
_atom_site_fract_z
_atom_site_charge
C          C       0.47877   0.52351   0.03419   0.0000000000
C          C       0.46643   0.48265  -0.01428   0.0000000000
C          C       0.49573   0.46971  -0.01862   0.0000000000
C          C       0.53673   0.49631   0.03361   0.0000000000
C          C       0.54894   0.53707   0.08246   0.0000000000
C          C       0.51979   0.55012   0.08480   0.0000000000
O          O       0.58969   0.56347   0.13884   0.0000000000
C          C       0.60986   0.60400   0.06193   0.0000000000
O          O       0.42568   0.45645  -0.07086   0.0000000000
C          C       0.40577   0.41557   0.00201   0.0000000000
C          C       0.56719   0.48204   0.03641   0.0000000000
C          C       0.44862   0.53811   0.03531   0.0000000000
N          N       0.46079   0.57713   0.03769   0.0000000000
N          N       0.55691   0.44455  -0.00725   0.0000000000
C          C       0.43519   0.59551   0.03707   0.0000000000
C          C       0.58279   0.42636  -0.00607   0.0000000000
C          C       0.56643   0.38628  -0.07320   0.0000000000
C          C       0.58957   0.36657  -0.07358   0.0000000000
C          C       0.62983   0.38604  -0.00115   0.0000000000
C          C       0.64615   0.42649   0.06679   0.0000000000
C          C       0.62322   0.44649   0.06323   0.0000000000
C          C       0.45228   0.63620  -0.02271   0.0000000000
C          C       0.42885   0.65555  -0.02834   0.0000000000
C          C       0.38764   0.63517   0.03180   0.0000000000
C          C       0.37103   0.59458   0.09859   0.0000000000
C          C       0.39431   0.57490   0.09964   0.0000000000
C          C       0.65394   0.36396   0.01104   0.0000000000
C          C       0.36222   0.65579   0.01824   0.0000000000
C          C       0.69677   0.38568   0.01742   0.0000000000
C          C       0.31483   0.69589  -0.03675   0.0000000000
C          C       0.49562   0.96753  -0.00084   0.0000000000
C          C       0.53675   0.99826  -0.03515   0.0000000000
C          C       0.54838   0.03955  -0.01159   0.0000000000
C          C       0.52052   0.05150   0.05101   0.0000000000
C          C       0.47988   0.02122   0.08851   0.0000000000
C          C       0.46799   0.97957   0.06645   0.0000000000
O          O       0.45232   0.03333   0.15382   0.0000000000
C          C       0.41318   0.01535   0.06380   0.0000000000
O          O       0.56664   0.98992  -0.10561   0.0000000000
C          C       0.57514   0.96290   0.00132   0.0000000000
C          C       0.53354   0.09559   0.07240   0.0000000000
C          C       0.48070   0.92348  -0.04030   0.0000000000
N          N       0.44603   0.89558   0.02947   0.0000000000
N          N       0.56966   0.12337   0.01639   0.0000000000
C          C       0.42661   0.85175   0.01280   0.0000000000
C          C       0.58790   0.16716   0.02244   0.0000000000
C          C       0.62614   0.19005  -0.06141   0.0000000000
C          C       0.64609   0.23264  -0.06032   0.0000000000
C          C       0.63110   0.25402   0.03848   0.0000000000
C          C       0.59134   0.23117   0.11653   0.0000000000
C          C       0.56963   0.18802   0.10666   0.0000000000
C          C       0.38793   0.82885   0.09299   0.0000000000
C          C       0.36763   0.78624   0.08910   0.0000000000
C          C       0.38295   0.76486  -0.00647   0.0000000000
C          C       0.42293   0.78763  -0.08213   0.0000000000
C          C       0.44486   0.83081  -0.07097   0.0000000000
C          C       0.65590   0.29991   0.04224   0.0000000000
C          C       0.35860   0.71897  -0.00779   0.0000000000
C          C       0.63428   0.32119   0.02093   0.0000000000
C          C       0.31983   0.63306  -0.00978   0.0000000000
C          C       0.04987   0.53201  -0.06096   0.0000000000
C          C       0.02349   0.54810  -0.08134   0.0000000000
C          C       0.98163   0.52370  -0.03913   0.0000000000
C          C       0.96520   0.48290   0.02120   0.0000000000
C          C       0.99154   0.46606   0.02950   0.0000000000
C          C       0.03347   0.49110  -0.00535   0.0000000000
O          O       0.97847   0.42572   0.08672   0.0000000000
C          C       0.94847   0.39345  -0.02765   0.0000000000
O          O       0.03794   0.58630  -0.16767   0.0000000000
C          C       0.03779   0.61735  -0.05386   0.0000000000
C          C       0.92094   0.45797   0.06874   0.0000000000
C          C       0.09466   0.55902  -0.08578   0.0000000000
N          N       0.12008   0.54511  -0.07687   0.0000000000
N          N       0.89580   0.47205   0.05139   0.0000000000
C          C       0.16390   0.57135  -0.07168   0.0000000000
C          C       0.85205   0.44582   0.06261   0.0000000000
C          C       0.82697   0.45991   0.13930   0.0000000000
C          C       0.78408   0.43401   0.14443   0.0000000000
C          C       0.76558   0.39425   0.06478   0.0000000000
C          C       0.79095   0.38306  -0.02550   0.0000000000
C          C       0.83337   0.40697  -0.02068   0.0000000000
C          C       0.18987   0.55815  -0.14608   0.0000000000
C          C       0.23271   0.58422  -0.14272   0.0000000000
C          C       0.25032   0.62337  -0.05718   0.0000000000
C          C       0.22397   0.63341   0.03288   0.0000000000
C          C       0.18158   0.60928   0.01996   0.0000000000
C          C       0.72007   0.36644   0.05019   0.0000000000
C          C       0.29571   0.65167  -0.03697   0.0000000000
C          C       0.69996   0.32223   0.05986   0.0000000000
C          C       0.38055   0.69846   0.02627   0.0000000000
O          O       0.71990   2.30237   0.14658   0.0000000000
C          C       0.72536   2.23992   0.06288   0.0000000000
N          N       0.75740   2.23018   0.11182   0.0000000000
C          C       0.79262   2.26773   0.18768   0.0000000000
C          C       0.78780   2.30387   0.11810   0.0000000000
C          C       0.74340   2.28650   0.04899   0.0000000000
C          C       0.74427   2.18960   0.15917   0.0000000000
O          O       0.76636   2.16960   0.10684   0.0000000000
C          C       0.77290   2.14384   0.23697   0.0000000000
C          C       0.78685   2.11314   0.15848   0.0000000000
C          C       0.81254   2.17772   0.33045   0.0000000000
C          C       0.73018   2.11366   0.33236   0.0000000000
O          O       0.70860   2.16818   0.20696   0.0000000000
O          O       1.29469   1.71543  -0.12427   0.0000000000
C          C       1.28759   1.77705  -0.04469   0.0000000000
C          C       1.27069   1.73080  -0.02718   0.0000000000
C          C       1.22605   1.71207  -0.09356   0.0000000000
C          C       1.21819   1.74711  -0.15285   0.0000000000
N          N       1.25494   1.78558  -0.09796   0.0000000000
C          C       1.26681   1.82477  -0.16454   0.0000000000
O          O       1.24274   1.84384  -0.13481   0.0000000000
C          C       1.23896   1.87075  -0.26935   0.0000000000
C          C       1.19820   1.83886  -0.36187   0.0000000000
C          C       1.28246   1.89929  -0.35846   0.0000000000
C          C       1.22792   1.90413  -0.20343   0.0000000000
O          O       1.30232   1.84624  -0.21378   0.0000000000
C          C       0.83669   2.27810   0.16098   0.0000000000
O          O       0.84782   2.25307   0.06237   0.0000000000
C          C       0.89062   2.26658   0.04081   0.0000000000
O          O       0.86302   2.30990   0.23412   0.0000000000
C          C       1.17609   1.73940  -0.08725   0.0000000000
O          O       1.15992   1.76282  -0.16093   0.0000000000
C          C       1.11911   1.75254  -0.10791   0.0000000000
O          O       1.15467   1.70987   0.01323   0.0000000000
H          H       0.48659   0.43900  -0.06581   0.0000000000
H          H       0.52898   0.58087   0.13106   0.0000000000
H          H       0.59019   0.61001  -0.03343   0.0000000000
H          H       0.63709   0.60864  -0.01807   0.0000000000
H          H       0.62070   0.62692   0.17642   0.0000000000
H          H       0.42510   0.40966   0.09993   0.0000000000
H          H       0.39620   0.39328  -0.11414   0.0000000000
H          H       0.37773   0.40987   0.07740   0.0000000000
H          H       0.59825   0.50367   0.07724   0.0000000000
H          H       0.41633   0.51590   0.02546   0.0000000000
H          H       0.53549   0.37028  -0.12795   0.0000000000
H          H       0.57573   0.33626  -0.13418   0.0000000000
H          H       0.67622   0.44256   0.13022   0.0000000000
H          H       0.63709   0.47704   0.12103   0.0000000000
H          H       0.48377   0.65268  -0.07036   0.0000000000
H          H       0.44304   0.68624  -0.08523   0.0000000000
H          H       0.34027   0.57807   0.15444   0.0000000000
H          H       0.38062   0.54405   0.15452   0.0000000000
H          H       0.71255   0.41841  -0.00460   0.0000000000
H          H       0.57971   0.06247  -0.04361   0.0000000000
H          H       0.43687   0.95653   0.10082   0.0000000000
H          H       0.40796  -0.00894  -0.03892   0.0000000000
H          H       0.41060   0.03981  -0.01079   0.0000000000
H          H       0.38857   0.00190   0.17066   0.0000000000
H          H       0.57555   0.93974  -0.09345   0.0000000000
H          H       0.55223   0.94625   0.11262   0.0000000000
H          H       0.60589   0.98081   0.06631   0.0000000000
H          H       0.51253   0.10425   0.13119   0.0000000000
H          H       0.49879   0.91492  -0.12657   0.0000000000
H          H       0.63987   0.17467  -0.13426   0.0000000000
H          H       0.67302   0.24963  -0.14225   0.0000000000
H          H       0.57759   0.24631   0.19096   0.0000000000
H          H       0.53977   0.17153   0.17158   0.0000000000
H          H       0.37421   0.84420   0.16620   0.0000000000
H          H       0.34036   0.76907   0.16782   0.0000000000
H          H       0.43689   0.77222  -0.15269   0.0000000000
H          H       0.47526   0.84727  -0.13076   0.0000000000
H          H       0.60132   0.30377   0.01328   0.0000000000
H          H       0.30525   0.60008  -0.01217   0.0000000000
H          H       0.96176   0.53644  -0.05858   0.0000000000
H          H       0.05331   0.47824   0.01187   0.0000000000
H          H       0.96262   0.37728  -0.09796   0.0000000000
H          H       0.93481   0.40437  -0.13457   0.0000000000
H          H       0.92327   0.37111   0.06271   0.0000000000
H          H       0.04299   0.64341  -0.14500   0.0000000000
H          H       0.06361   0.62914   0.04720   0.0000000000
H          H       0.00809   0.60622   0.01980   0.0000000000
H          H       0.90883   0.42662   0.11297   0.0000000000
H          H       0.10638   0.59157  -0.10334   0.0000000000
H          H       0.84060   0.49034   0.19939   0.0000000000
H          H       0.76563   0.44504   0.21118   0.0000000000
H          H       0.77692   0.35736  -0.11457   0.0000000000
H          H       0.85144   0.39650  -0.09562   0.0000000000
H          H       0.17695   0.52843  -0.21296   0.0000000000
H          H       0.25167   0.57393  -0.21032   0.0000000000
H          H       0.23698   0.65865   0.12607   0.0000000000
H          H       0.16274   0.61890   0.09409   0.0000000000
H          H       0.41277   0.71636   0.06008   0.0000000000
H          H       0.69918   2.22633   0.15820   0.0000000000
H          H       0.71260   2.22442  -0.06885   0.0000000000
H          H       0.78888   2.26524   0.33582   0.0000000000
H          H       0.80987   2.31997   0.00376   0.0000000000
H          H       0.79790   2.32815   0.22115   0.0000000000
H          H       0.74431   2.29292  -0.09533   0.0000000000
H          H       0.78773   2.10941   0.00919   0.0000000000
H          H       0.76727   2.08103   0.20699   0.0000000000
H          H       0.81806   2.12080   0.20509   0.0000000000
H          H       0.83740   2.19087   0.22599   0.0000000000
H          H       0.82750   2.16982   0.44054   0.0000000000
H          H       0.80842   2.20369   0.36482   0.0000000000
H          H       0.72834   2.08806   0.41535   0.0000000000
H          H       0.70766   2.09742   0.21869   0.0000000000
H          H       0.71558   2.12701   0.41732   0.0000000000
H          H       1.31404   1.79118  -0.13795   0.0000000000
H          H       1.29984   1.79276   0.08676   0.0000000000
H          H       1.27020   1.72482   0.11768   0.0000000000
H          H       1.20533   1.69368   0.01945   0.0000000000
H          H       1.21733   1.68888  -0.20101   0.0000000000
H          H       1.21772   1.74766  -0.30296   0.0000000000
H          H       1.19848   1.81069  -0.40097   0.0000000000
H          H       1.18557   1.84870  -0.47095   0.0000000000
H          H       1.17307   1.82846  -0.25888   0.0000000000
H          H       1.28724   1.92722  -0.42830   0.0000000000
H          H       1.29582   1.88520  -0.44554   0.0000000000
H          H       1.30471   1.91311  -0.24152   0.0000000000
H          H       1.19770   1.89458  -0.14136   0.0000000000
H          H       1.22487   1.91919  -0.33130   0.0000000000
H          H       1.25191   1.93075  -0.12881   0.0000000000
H          H       0.89797   2.26797  -0.10808   0.0000000000
H          H       0.89749   2.24376   0.10349   0.0000000000
H          H       0.91178   2.29737   0.09953   0.0000000000
H          H       1.10210   1.72369  -0.02675   0.0000000000
H          H       1.10073   1.74880  -0.23466   0.0000000000
H          H       1.12046   1.77825  -0.02644   0.0000000000
C          C       0.47877   0.52351   0.53419   0.0000000000
C          C       0.46643   0.48265   0.48572   0.0000000000
C          C       0.49573   0.46971   0.48138   0.0000000000
C          C       0.53673   0.49631   0.53360   0.0000000000
C          C       0.54894   0.53707   0.58246   0.0000000000
C          C       0.51979   0.55012   0.58481   0.0000000000
O          O       0.58969   0.56347   0.63884   0.0000000000
C          C       0.60986   0.60400   0.56193   0.0000000000
O          O       0.42568   0.45645   0.42914   0.0000000000
C          C       0.40577   0.41557   0.50201   0.0000000000
C          C       0.56719   0.48204   0.53641   0.0000000000
C          C       0.44862   0.53811   0.53531   0.0000000000
N          N       0.46079   0.57713   0.53768   0.0000000000
N          N       0.55691   0.44455   0.49275   0.0000000000
C          C       0.43519   0.59551   0.53706   0.0000000000
C          C       0.58279   0.42636   0.49392   0.0000000000
C          C       0.56643   0.38628   0.42680   0.0000000000
C          C       0.58957   0.36657   0.42641   0.0000000000
C          C       0.62983   0.38604   0.49885   0.0000000000
C          C       0.64615   0.42649   0.56679   0.0000000000
C          C       0.62322   0.44649   0.56323   0.0000000000
C          C       0.45228   0.63620   0.47728   0.0000000000
C          C       0.42885   0.65555   0.47166   0.0000000000
C          C       0.38764   0.63517   0.53180   0.0000000000
C          C       0.37103   0.59458   0.59859   0.0000000000
C          C       0.39431   0.57490   0.59964   0.0000000000
C          C       0.65394   0.36396   0.51104   0.0000000000
C          C       0.36222   0.65579   0.51824   0.0000000000
C          C       0.69677   0.38568   0.51742   0.0000000000
C          C       0.31483   0.69589   0.46325   0.0000000000
C          C       0.49562   0.96753   0.49916   0.0000000000
C          C       0.53675   0.99826   0.46484   0.0000000000
C          C       0.54838   0.03955   0.48841   0.0000000000
C          C       0.52052   0.05150   0.55101   0.0000000000
C          C       0.47988   0.02122   0.58850   0.0000000000
C          C       0.46799   0.97957   0.56645   0.0000000000
O          O       0.45232   0.03333   0.65382   0.0000000000
C          C       0.41318   0.01535   0.56380   0.0000000000
O          O       0.56664   0.98992   0.39438   0.0000000000
C          C       0.57514   0.96290   0.50133   0.0000000000
C          C       0.53354   0.09559   0.57240   0.0000000000
C          C       0.48070   0.92348   0.45970   0.0000000000
N          N       0.44603   0.89558   0.52947   0.0000000000
N          N       0.56966   0.12337   0.51639   0.0000000000
C          C       0.42661   0.85175   0.51280   0.0000000000
C          C       0.58790   0.16716   0.52243   0.0000000000
C          C       0.62614   0.19005   0.43859   0.0000000000
C          C       0.64609   0.23264   0.43967   0.0000000000
C          C       0.63110   0.25402   0.53847   0.0000000000
C          C       0.59134   0.23117   0.61653   0.0000000000
C          C       0.56963   0.18802   0.60666   0.0000000000
C          C       0.38793   0.82885   0.59300   0.0000000000
C          C       0.36763   0.78624   0.58910   0.0000000000
C          C       0.38295   0.76486   0.49352   0.0000000000
C          C       0.42293   0.78763   0.41787   0.0000000000
C          C       0.44486   0.83081   0.42902   0.0000000000
C          C       0.65590   0.29991   0.54224   0.0000000000
C          C       0.35860   0.71897   0.49221   0.0000000000
C          C       0.63428   0.32119   0.52093   0.0000000000
C          C       0.31983   0.63306   0.49022   0.0000000000
C          C       0.04987   0.53201   0.43903   0.0000000000
C          C       0.02349   0.54810   0.41866   0.0000000000
C          C       0.98163   0.52370   0.46086   0.0000000000
C          C       0.96520   0.48290   0.52120   0.0000000000
C          C       0.99154   0.46606   0.52949   0.0000000000
C          C       0.03347   0.49110   0.49465   0.0000000000
O          O       0.97847   0.42572   0.58672   0.0000000000
C          C       0.94847   0.39345   0.47235   0.0000000000
O          O       0.03794   0.58630   0.33233   0.0000000000
C          C       0.03779   0.61735   0.44614   0.0000000000
C          C       0.92094   0.45797   0.56874   0.0000000000
C          C       0.09466   0.55902   0.41422   0.0000000000
N          N       0.12008   0.54511   0.42312   0.0000000000
N          N       0.89580   0.47205   0.55139   0.0000000000
C          C       0.16390   0.57135   0.42831   0.0000000000
C          C       0.85205   0.44582   0.56261   0.0000000000
C          C       0.82697   0.45991   0.63930   0.0000000000
C          C       0.78408   0.43401   0.64443   0.0000000000
C          C       0.76558   0.39425   0.56478   0.0000000000
C          C       0.79095   0.38306   0.47450   0.0000000000
C          C       0.83337   0.40697   0.47931   0.0000000000
C          C       0.18987   0.55815   0.35392   0.0000000000
C          C       0.23271   0.58422   0.35728   0.0000000000
C          C       0.25032   0.62337   0.44282   0.0000000000
C          C       0.22397   0.63341   0.53288   0.0000000000
C          C       0.18158   0.60928   0.51995   0.0000000000
C          C       0.72007   0.36644   0.55019   0.0000000000
C          C       0.29571   0.65167   0.46302   0.0000000000
C          C       0.69996   0.32223   0.55986   0.0000000000
C          C       0.38055   0.69846   0.52627   0.0000000000
O          O       0.71990   2.30237   0.64658   0.0000000000
C          C       0.72536   2.23992   0.56288   0.0000000000
N          N       0.75740   2.23018   0.61182   0.0000000000
C          C       0.79262   2.26773   0.68768   0.0000000000
C          C       0.78780   2.30387   0.61811   0.0000000000
C          C       0.74340   2.28650   0.54900   0.0000000000
C          C       0.74427   2.18960   0.65917   0.0000000000
O          O       0.76636   2.16960   0.60684   0.0000000000
C          C       0.77290   2.14384   0.73696   0.0000000000
C          C       0.78685   2.11314   0.65848   0.0000000000
C          C       0.81254   2.17772   0.83045   0.0000000000
C          C       0.73018   2.11366   0.83236   0.0000000000
O          O       0.70860   2.16818   0.70696   0.0000000000
O          O       1.29469   1.71543   0.37572   0.0000000000
C          C       1.28759   1.77705   0.45531   0.0000000000
C          C       1.27069   1.73080   0.47282   0.0000000000
C          C       1.22605   1.71207   0.40644   0.0000000000
C          C       1.21819   1.74711   0.34715   0.0000000000
N          N       1.25494   1.78558   0.40204   0.0000000000
C          C       1.26681   1.82477   0.33546   0.0000000000
O          O       1.24274   1.84384   0.36519   0.0000000000
C          C       1.23896   1.87075   0.23065   0.0000000000
C          C       1.19820   1.83886   0.13813   0.0000000000
C          C       1.28246   1.89929   0.14154   0.0000000000
C          C       1.22792   1.90413   0.29656   0.0000000000
O          O       1.30232   1.84624   0.28622   0.0000000000
C          C       0.83669   2.27810   0.66098   0.0000000000
O          O       0.84782   2.25307   0.56237   0.0000000000
C          C       0.89062   2.26658   0.54081   0.0000000000
O          O       0.86302   2.30990   0.73413   0.0000000000
C          C       1.17609   1.73940   0.41274   0.0000000000
O          O       1.15992   1.76282   0.33907   0.0000000000
C          C       1.11911   1.75254   0.39209   0.0000000000
O          O       1.15467   1.70987   0.51323   0.0000000000
H          H       0.48659   0.43900   0.43418   0.0000000000
H          H       0.52898   0.58087   0.63106   0.0000000000
H          H       0.59019   0.61001   0.46656   0.0000000000
H          H       0.63709   0.60864   0.48192   0.0000000000
H          H       0.62070   0.62692   0.67642   0.0000000000
H          H       0.42510   0.40966   0.59993   0.0000000000
H          H       0.39620   0.39328   0.38586   0.0000000000
H          H       0.37773   0.40987   0.57740   0.0000000000
H          H       0.59825   0.50367   0.57724   0.0000000000
H          H       0.41633   0.51590   0.52546   0.0000000000
H          H       0.53549   0.37028   0.37205   0.0000000000
H          H       0.57573   0.33626   0.36582   0.0000000000
H          H       0.67622   0.44256   0.63022   0.0000000000
H          H       0.63709   0.47704   0.62103   0.0000000000
H          H       0.48377   0.65268   0.42964   0.0000000000
H          H       0.44304   0.68624   0.41477   0.0000000000
H          H       0.34027   0.57807   0.65444   0.0000000000
H          H       0.38062   0.54405   0.65452   0.0000000000
H          H       0.71255   0.41841   0.49540   0.0000000000
H          H       0.57971   0.06247   0.45638   0.0000000000
H          H       0.43687   0.95653   0.60082   0.0000000000
H          H       0.40796  -0.00894   0.46108   0.0000000000
H          H       0.41060   0.03981   0.48921   0.0000000000
H          H       0.38857   0.00190   0.67066   0.0000000000
H          H       0.57555   0.93974   0.40654   0.0000000000
H          H       0.55223   0.94625   0.61262   0.0000000000
H          H       0.60589   0.98081   0.56631   0.0000000000
H          H       0.51253   0.10425   0.63119   0.0000000000
H          H       0.49879   0.91492   0.37343   0.0000000000
H          H       0.63987   0.17467   0.36574   0.0000000000
H          H       0.67302   0.24963   0.35775   0.0000000000
H          H       0.57759   0.24631   0.69096   0.0000000000
H          H       0.53977   0.17153   0.67157   0.0000000000
H          H       0.37421   0.84420   0.66620   0.0000000000
H          H       0.34036   0.76907   0.66782   0.0000000000
H          H       0.43689   0.77222   0.34731   0.0000000000
H          H       0.47526   0.84727   0.36924   0.0000000000
H          H       0.60132   0.30377   0.51328   0.0000000000
H          H       0.30525   0.60008   0.48783   0.0000000000
H          H       0.96176   0.53644   0.44141   0.0000000000
H          H       0.05331   0.47824   0.51187   0.0000000000
H          H       0.96262   0.37728   0.40204   0.0000000000
H          H       0.93481   0.40437   0.36543   0.0000000000
H          H       0.92327   0.37111   0.56271   0.0000000000
H          H       0.04299   0.64341   0.35500   0.0000000000
H          H       0.06361   0.62914   0.54720   0.0000000000
H          H       0.00809   0.60622   0.51980   0.0000000000
H          H       0.90883   0.42662   0.61297   0.0000000000
H          H       0.10638   0.59157   0.39666   0.0000000000
H          H       0.84060   0.49034   0.69939   0.0000000000
H          H       0.76563   0.44504   0.71118   0.0000000000
H          H       0.77692   0.35736   0.38543   0.0000000000
H          H       0.85144   0.39650   0.40438   0.0000000000
H          H       0.17695   0.52843   0.28704   0.0000000000
H          H       0.25167   0.57393   0.28968   0.0000000000
H          H       0.23698   0.65865   0.62607   0.0000000000
H          H       0.16274   0.61890   0.59409   0.0000000000
H          H       0.41277   0.71636   0.56008   0.0000000000
H          H       0.69918   2.22633   0.65820   0.0000000000
H          H       0.71260   2.22442   0.43115   0.0000000000
H          H       0.78888   2.26524   0.83582   0.0000000000
H          H       0.80987   2.31997   0.50375   0.0000000000
H          H       0.79790   2.32815   0.72115   0.0000000000
H          H       0.74431   2.29292   0.40466   0.0000000000
H          H       0.78773   2.10941   0.50919   0.0000000000
H          H       0.76727   2.08103   0.70698   0.0000000000
H          H       0.81806   2.12080   0.70509   0.0000000000
H          H       0.83740   2.19087   0.72599   0.0000000000
H          H       0.82750   2.16982   0.94054   0.0000000000
H          H       0.80842   2.20369   0.86482   0.0000000000
H          H       0.72834   2.08806   0.91535   0.0000000000
H          H       0.70766   2.09742   0.71869   0.0000000000
H          H       0.71558   2.12701   0.91732   0.0000000000
H          H       1.31404   1.79118   0.36205   0.0000000000
H          H       1.29984   1.79276   0.58676   0.0000000000
H          H       1.27020   1.72482   0.61768   0.0000000000
H          H       1.20533   1.69368   0.51944   0.0000000000
H          H       1.21733   1.68888   0.29899   0.0000000000
H          H       1.21772   1.74766   0.19704   0.0000000000
H          H       1.19848   1.81069   0.09903   0.0000000000
H          H       1.18557   1.84870   0.02905   0.0000000000
H          H       1.17307   1.82846   0.24112   0.0000000000
H          H       1.28724   1.92722   0.07169   0.0000000000
H          H       1.29582   1.88520   0.05446   0.0000000000
H          H       1.30471   1.91311   0.25848   0.0000000000
H          H       1.19770   1.89458   0.35864   0.0000000000
H          H       1.22487   1.91919   0.16869   0.0000000000
H          H       1.25191   1.93075   0.37119   0.0000000000
H          H       0.89797   2.26797   0.39192   0.0000000000
H          H       0.89749   2.24376   0.60349   0.0000000000
H          H       0.91178   2.29737   0.59953   0.0000000000
H          H       1.10210   1.72369   0.47324   0.0000000000
H          H       1.10073   1.74880   0.26534   0.0000000000
H          H       1.12046   1.77825   0.47356   0.0000000000
