data_crystal
 
_cell_length_a    37.61990
_cell_length_b    37.60630
_cell_length_c    7.02000
_cell_angle_alpha 90.01450
_cell_angle_beta  89.94130
_cell_angle_gamma 120.04660
 
_symmetry_space_group_name_Hall 'P 1'
_symmetry_space_group_name_H-M  'P 1'
 
loop_
_symmetry_equiv_pos_as_xyz
 'x,y,z' 
 
loop_
_atom_site_label
_atom_site_type_symbol
_atom_site_fract_x
_atom_site_fract_y
_atom_site_fract_z
_atom_site_charge
C          C       0.47973   0.51374  -0.00999   0.0000000000
C          C       0.46374   0.47098  -0.00215   0.0000000000
C          C       0.48859   0.45519   0.05851   0.0000000000
C          C       0.53016   0.48163   0.10092   0.0000000000
C          C       0.54793   0.52423   0.06396   0.0000000000
C          C       0.52196   0.54003   0.02192   0.0000000000
O          O       0.59033   0.55247   0.08622   0.0000000000
C          C       0.62015   0.54421  -0.00277   0.0000000000
O          O       0.42568   0.44471  -0.08532   0.0000000000
C          C       0.39342   0.41809   0.04052   0.0000000000
C          C       0.55569   0.46581   0.18100   0.0000000000
C          C       0.45158   0.52997  -0.04830   0.0000000000
N          N       0.46232   0.56812  -0.01324   0.0000000000
N          N       0.54530   0.42719   0.17146   0.0000000000
C          C       0.43649   0.58640  -0.02943   0.0000000000
C          C       0.57238   0.41100   0.20394   0.0000000000
C          C       0.55545   0.36954   0.25245   0.0000000000
C          C       0.57979   0.35099   0.25620   0.0000000000
C          C       0.62160   0.37304   0.20331   0.0000000000
C          C       0.63864   0.41510   0.15948   0.0000000000
C          C       0.61458   0.43390   0.16226   0.0000000000
C          C       0.45218   0.62688   0.03265   0.0000000000
C          C       0.42811   0.64573   0.02853   0.0000000000
C          C       0.38750   0.62472  -0.04151   0.0000000000
C          C       0.37210   0.58416  -0.10704   0.0000000000
C          C       0.39602   0.56518  -0.10016   0.0000000000
C          C       0.64642   0.35182   0.18238   0.0000000000
C          C       0.36170   0.64504  -0.05213   0.0000000000
C          C       0.68925   0.37358   0.19702   0.0000000000
C          C       0.31332   0.68197  -0.10409   0.0000000000
C          C       0.47157   0.95497  -0.04199   0.0000000000
C          C       0.51121   0.98513  -0.10038   0.0000000000
C          C       0.52420   0.02698  -0.07618   0.0000000000
C          C       0.49785   0.04053  -0.00515   0.0000000000
C          C       0.45605   0.01078   0.02618   0.0000000000
C          C       0.44374   0.96697   0.01858   0.0000000000
O          O       0.42549   0.02005   0.07693   0.0000000000
C          C       0.42212   0.04990  -0.03551   0.0000000000
O          O       0.53494   0.97453  -0.21587   0.0000000000
C          C       0.56187   0.96426  -0.11979   0.0000000000
C          C       0.51438   0.08497   0.03660   0.0000000000
C          C       0.45975   0.91126  -0.03527   0.0000000000
N          N       0.42235   0.88281  -0.07209   0.0000000000
N          N       0.55290   0.11119   0.00700   0.0000000000
C          C       0.40766   0.83946  -0.06982   0.0000000000
C          C       0.57448   0.15495   0.03534   0.0000000000
C          C       0.61480   0.17681  -0.02809   0.0000000000
C          C       0.63750   0.21937  -0.01073   0.0000000000
C          C       0.62260   0.24216   0.08190   0.0000000000
C          C       0.58132   0.21949   0.14761   0.0000000000
C          C       0.55727   0.17673   0.12037   0.0000000000
C          C       0.36700   0.81296  -0.01706   0.0000000000
C          C       0.35092   0.77054  -0.01732   0.0000000000
C          C       0.37458   0.75314  -0.07978   0.0000000000
C          C       0.41562   0.78013  -0.13476   0.0000000000
C          C       0.43214   0.82286  -0.12790   0.0000000000
C          C       0.64887   0.28856   0.11197   0.0000000000
C          C       0.35604   0.70723  -0.08468   0.0000000000
C          C       0.62724   0.31004   0.13547   0.0000000000
C          C       0.31837   0.62125  -0.05085   0.0000000000
C          C       0.04586   0.52896  -0.06892   0.0000000000
C          C       0.01820   0.54319  -0.09776   0.0000000000
C          C       0.97382   0.51579  -0.05989   0.0000000000
C          C       0.95814   0.47425  -0.01403   0.0000000000
C          C       0.98569   0.45877  -0.01063   0.0000000000
C          C       0.03032   0.48759  -0.02367   0.0000000000
O          O       0.97363   0.41731   0.01992   0.0000000000
C          C       0.94176   0.38744  -0.09846   0.0000000000
O          O       0.03093   0.57994  -0.19566   0.0000000000
C          C       0.03649   0.61332  -0.07988   0.0000000000
C          C       0.91381   0.44753   0.03112   0.0000000000
C          C       0.09081   0.55756  -0.08112   0.0000000000
N          N       0.11647   0.54386  -0.08296   0.0000000000
N          N       0.88843   0.46161   0.03978   0.0000000000
C          C       0.16062   0.56853  -0.08266   0.0000000000
C          C       0.84524   0.43673   0.08322   0.0000000000
C          C       0.81776   0.44961   0.02553   0.0000000000
C          C       0.77515   0.42359   0.04791   0.0000000000
C          C       0.75906   0.38442   0.13301   0.0000000000
C          C       0.78740   0.37475   0.21066   0.0000000000
C          C       0.82947   0.39924   0.18014   0.0000000000
C          C       0.18375   0.55052  -0.13942   0.0000000000
C          C       0.22678   0.57314  -0.13897   0.0000000000
C          C       0.24779   0.61430  -0.07698   0.0000000000
C          C       0.22423   0.63176  -0.01418   0.0000000000
C          C       0.18136   0.60943  -0.01850   0.0000000000
C          C       0.71331   0.35574   0.15155   0.0000000000
C          C       0.29380   0.63931  -0.07823   0.0000000000
C          C       0.69345   0.31238   0.11252   0.0000000000
C          C       0.38002   0.68826  -0.06426   0.0000000000
O          O       0.71762   2.29707   0.03088   0.0000000000
C          C       0.72809   2.27197   0.14564   0.0000000000
C          C       0.75554   2.25720   0.04978   0.0000000000
C          C       0.79887   2.29178  -0.00643   0.0000000000
C          C       0.82762   2.27545   0.03491   0.0000000000
C          C       0.79982   2.23137   0.09646   0.0000000000
N          N       0.76199   2.22847   0.16556   0.0000000000
H          H       0.47553   0.42224   0.06915   0.0000000000
H          H       0.53517   0.57294   0.00850   0.0000000000
H          H       0.62893   0.56010  -0.13876   0.0000000000
H          H       0.61155   0.51058  -0.01373   0.0000000000
H          H       0.64929   0.55961   0.07812   0.0000000000
H          H       0.40248   0.39897   0.12603   0.0000000000
H          H       0.36586   0.39743  -0.04518   0.0000000000
H          H       0.38479   0.43647   0.13343   0.0000000000
H          H       0.58606   0.48963   0.22514   0.0000000000
H          H       0.42043   0.50818  -0.09308   0.0000000000
H          H       0.52305   0.35136   0.28531   0.0000000000
H          H       0.56539   0.31905   0.29802   0.0000000000
H          H       0.67012   0.43341   0.11284   0.0000000000
H          H       0.62878   0.46573   0.12000   0.0000000000
H          H       0.48304   0.64353   0.08984   0.0000000000
H          H       0.44119   0.67635   0.08642   0.0000000000
H          H       0.34189   0.56713  -0.17025   0.0000000000
H          H       0.38274   0.53438  -0.15538   0.0000000000
H          H       0.70450   0.40550   0.23841   0.0000000000
H          H       0.29496   0.69571  -0.14028   0.0000000000
H          H       0.55531   0.04910  -0.11815   0.0000000000
H          H       0.41305   0.94427   0.06307   0.0000000000
H          H       0.39201   0.03473  -0.10779   0.0000000000
H          H       0.44770   0.06547  -0.14013   0.0000000000
H          H       0.42279   0.07388   0.05904   0.0000000000
H          H       0.58116   0.98853  -0.01598   0.0000000000
H          H       0.58281   0.96239  -0.22473   0.0000000000
H          H       0.54452   0.93327  -0.05688   0.0000000000
H          H       0.49404   0.09524   0.09018   0.0000000000
H          H       0.48202   0.90327   0.01568   0.0000000000
H          H       0.62823   0.16070  -0.09833   0.0000000000
H          H       0.66662   0.23405  -0.07318   0.0000000000
H          H       0.56763   0.23408   0.22795   0.0000000000
H          H       0.52613   0.16097   0.17310   0.0000000000
H          H       0.34793   0.82538   0.02900   0.0000000000
H          H       0.31989   0.75151   0.03453   0.0000000000
H          H       0.43478   0.76849  -0.18842   0.0000000000
H          H       0.46339   0.84278  -0.17495   0.0000000000
H          H       0.59479   0.29443   0.10634   0.0000000000
H          H       0.30355   0.58863  -0.02424   0.0000000000
H          H       0.95348   0.52826  -0.07384   0.0000000000
H          H       0.05091   0.47570  -0.00086   0.0000000000
H          H       0.91706   0.36403  -0.00787   0.0000000000
H          H       0.95426   0.37141  -0.18292   0.0000000000
H          H       0.92806   0.40139  -0.19181   0.0000000000
H          H       0.04292   0.63972  -0.17272   0.0000000000
H          H       0.06378   0.62303   0.01256   0.0000000000
H          H       0.00832   0.60512   0.00421   0.0000000000
H          H       0.90240   0.41509   0.05248   0.0000000000
H          H       0.10192   0.59023  -0.08568   0.0000000000
H          H       0.82921   0.47892  -0.04552   0.0000000000
H          H       0.75474   0.43357  -0.00709   0.0000000000
H          H       0.77798   0.35058   0.31067   0.0000000000
H          H       0.84955   0.38971   0.24358   0.0000000000
H          H       0.16842   0.51895  -0.18760   0.0000000000
H          H       0.24332   0.55844  -0.19123   0.0000000000
H          H       0.23868   0.66258   0.04297   0.0000000000
H          H       0.16491   0.62407   0.03490   0.0000000000
H          H       0.41294   0.70726  -0.05800   0.0000000000
H          H       0.70050   2.24400   0.18907   0.0000000000
H          H       0.74382   2.28936   0.26542   0.0000000000
H          H       0.73645   2.23879  -0.06707   0.0000000000
H          H       0.80203   2.30034  -0.15368   0.0000000000
H          H       0.80842   2.32092   0.06878   0.0000000000
H          H       0.84996   2.29511   0.14282   0.0000000000
H          H       0.84703   2.27641  -0.08331   0.0000000000
H          H       0.81507   2.22234   0.20350   0.0000000000
H          H       0.79239   2.20956  -0.02142   0.0000000000
H          H       0.73752   2.19834   0.14911   0.0000000000
C          C       0.47973   0.51374   0.49001   0.0000000000
C          C       0.46374   0.47098   0.49785   0.0000000000
C          C       0.48859   0.45519   0.55851   0.0000000000
C          C       0.53016   0.48163   0.60092   0.0000000000
C          C       0.54793   0.52423   0.56396   0.0000000000
C          C       0.52196   0.54003   0.52192   0.0000000000
O          O       0.59033   0.55247   0.58622   0.0000000000
C          C       0.62015   0.54421   0.49723   0.0000000000
O          O       0.42568   0.44471   0.41468   0.0000000000
C          C       0.39342   0.41809   0.54052   0.0000000000
C          C       0.55569   0.46581   0.68100   0.0000000000
C          C       0.45158   0.52997   0.45169   0.0000000000
N          N       0.46232   0.56812   0.48676   0.0000000000
N          N       0.54530   0.42719   0.67146   0.0000000000
C          C       0.43649   0.58640   0.47057   0.0000000000
C          C       0.57238   0.41100   0.70394   0.0000000000
C          C       0.55545   0.36954   0.75245   0.0000000000
C          C       0.57979   0.35099   0.75619   0.0000000000
C          C       0.62160   0.37304   0.70331   0.0000000000
C          C       0.63864   0.41510   0.65948   0.0000000000
C          C       0.61458   0.43390   0.66226   0.0000000000
C          C       0.45218   0.62688   0.53265   0.0000000000
C          C       0.42811   0.64573   0.52853   0.0000000000
C          C       0.38750   0.62472   0.45849   0.0000000000
C          C       0.37210   0.58416   0.39297   0.0000000000
C          C       0.39602   0.56518   0.39984   0.0000000000
C          C       0.64642   0.35182   0.68238   0.0000000000
C          C       0.36170   0.64504   0.44787   0.0000000000
C          C       0.68925   0.37358   0.69702   0.0000000000
C          C       0.31332   0.68197   0.39591   0.0000000000
C          C       0.47157   0.95497   0.45801   0.0000000000
C          C       0.51121   0.98513   0.39963   0.0000000000
C          C       0.52420   0.02698   0.42381   0.0000000000
C          C       0.49785   0.04053   0.49485   0.0000000000
C          C       0.45605   0.01078   0.52617   0.0000000000
C          C       0.44374   0.96697   0.51858   0.0000000000
O          O       0.42549   0.02005   0.57693   0.0000000000
C          C       0.42212   0.04990   0.46449   0.0000000000
O          O       0.53494   0.97453   0.28412   0.0000000000
C          C       0.56187   0.96426   0.38020   0.0000000000
C          C       0.51438   0.08497   0.53660   0.0000000000
C          C       0.45975   0.91126   0.46472   0.0000000000
N          N       0.42235   0.88281   0.42791   0.0000000000
N          N       0.55290   0.11119   0.50700   0.0000000000
C          C       0.40766   0.83946   0.43018   0.0000000000
C          C       0.57448   0.15495   0.53534   0.0000000000
C          C       0.61480   0.17681   0.47190   0.0000000000
C          C       0.63750   0.21937   0.48926   0.0000000000
C          C       0.62260   0.24216   0.58191   0.0000000000
C          C       0.58132   0.21949   0.64761   0.0000000000
C          C       0.55727   0.17673   0.62037   0.0000000000
C          C       0.36700   0.81296   0.48295   0.0000000000
C          C       0.35092   0.77054   0.48268   0.0000000000
C          C       0.37458   0.75314   0.42022   0.0000000000
C          C       0.41562   0.78013   0.36523   0.0000000000
C          C       0.43214   0.82286   0.37209   0.0000000000
C          C       0.64887   0.28856   0.61197   0.0000000000
C          C       0.35604   0.70723   0.41532   0.0000000000
C          C       0.62724   0.31004   0.63547   0.0000000000
C          C       0.31837   0.62125   0.44915   0.0000000000
C          C       0.04586   0.52896   0.43107   0.0000000000
C          C       0.01820   0.54319   0.40224   0.0000000000
C          C       0.97382   0.51579   0.44011   0.0000000000
C          C       0.95814   0.47425   0.48597   0.0000000000
C          C       0.98569   0.45877   0.48937   0.0000000000
C          C       0.03032   0.48759   0.47633   0.0000000000
O          O       0.97363   0.41731   0.51992   0.0000000000
C          C       0.94176   0.38744   0.40154   0.0000000000
O          O       0.03093   0.57994   0.30434   0.0000000000
C          C       0.03649   0.61332   0.42012   0.0000000000
C          C       0.91381   0.44753   0.53112   0.0000000000
C          C       0.09081   0.55756   0.41887   0.0000000000
N          N       0.11647   0.54386   0.41704   0.0000000000
N          N       0.88843   0.46161   0.53978   0.0000000000
C          C       0.16062   0.56853   0.41734   0.0000000000
C          C       0.84524   0.43673   0.58322   0.0000000000
C          C       0.81776   0.44961   0.52553   0.0000000000
C          C       0.77515   0.42359   0.54791   0.0000000000
C          C       0.75906   0.38442   0.63301   0.0000000000
C          C       0.78740   0.37475   0.71066   0.0000000000
C          C       0.82947   0.39924   0.68014   0.0000000000
C          C       0.18375   0.55052   0.36058   0.0000000000
C          C       0.22678   0.57314   0.36103   0.0000000000
C          C       0.24779   0.61430   0.42301   0.0000000000
C          C       0.22423   0.63176   0.48581   0.0000000000
C          C       0.18136   0.60943   0.48150   0.0000000000
C          C       0.71331   0.35574   0.65155   0.0000000000
C          C       0.29380   0.63931   0.42177   0.0000000000
C          C       0.69345   0.31238   0.61252   0.0000000000
C          C       0.38002   0.68826   0.43574   0.0000000000
O          O       0.71762   2.29707   0.53088   0.0000000000
C          C       0.72809   2.27197   0.64564   0.0000000000
C          C       0.75554   2.25720   0.54978   0.0000000000
C          C       0.79887   2.29178   0.49356   0.0000000000
C          C       0.82762   2.27545   0.53491   0.0000000000
C          C       0.79982   2.23137   0.59646   0.0000000000
N          N       0.76199   2.22847   0.66556   0.0000000000
H          H       0.47553   0.42224   0.56915   0.0000000000
H          H       0.53517   0.57294   0.50850   0.0000000000
H          H       0.62893   0.56010   0.36124   0.0000000000
H          H       0.61155   0.51058   0.48627   0.0000000000
H          H       0.64929   0.55961   0.57812   0.0000000000
H          H       0.40248   0.39897   0.62604   0.0000000000
H          H       0.36586   0.39743   0.45482   0.0000000000
H          H       0.38479   0.43647   0.63343   0.0000000000
H          H       0.58606   0.48963   0.72514   0.0000000000
H          H       0.42043   0.50818   0.40691   0.0000000000
H          H       0.52305   0.35136   0.78531   0.0000000000
H          H       0.56539   0.31905   0.79802   0.0000000000
H          H       0.67012   0.43341   0.61284   0.0000000000
H          H       0.62878   0.46573   0.62000   0.0000000000
H          H       0.48304   0.64353   0.58984   0.0000000000
H          H       0.44119   0.67635   0.58642   0.0000000000
H          H       0.34189   0.56713   0.32975   0.0000000000
H          H       0.38274   0.53438   0.34462   0.0000000000
H          H       0.70450   0.40550   0.73841   0.0000000000
H          H       0.29496   0.69571   0.35971   0.0000000000
H          H       0.55531   0.04910   0.38185   0.0000000000
H          H       0.41305   0.94427   0.56307   0.0000000000
H          H       0.39201   0.03473   0.39220   0.0000000000
H          H       0.44770   0.06547   0.35987   0.0000000000
H          H       0.42279   0.07388   0.55904   0.0000000000
H          H       0.58116   0.98853   0.48401   0.0000000000
H          H       0.58281   0.96239   0.27527   0.0000000000
H          H       0.54452   0.93327   0.44311   0.0000000000
H          H       0.49404   0.09524   0.59018   0.0000000000
H          H       0.48202   0.90327   0.51568   0.0000000000
H          H       0.62823   0.16070   0.40167   0.0000000000
H          H       0.66662   0.23405   0.42681   0.0000000000
H          H       0.56763   0.23408   0.72795   0.0000000000
H          H       0.52613   0.16097   0.67310   0.0000000000
H          H       0.34793   0.82538   0.52900   0.0000000000
H          H       0.31989   0.75151   0.53452   0.0000000000
H          H       0.43478   0.76849   0.31158   0.0000000000
H          H       0.46339   0.84278   0.32504   0.0000000000
H          H       0.59479   0.29443   0.60634   0.0000000000
H          H       0.30355   0.58863   0.47575   0.0000000000
H          H       0.95348   0.52826   0.42616   0.0000000000
H          H       0.05091   0.47570   0.49914   0.0000000000
H          H       0.91706   0.36403   0.49213   0.0000000000
H          H       0.95426   0.37141   0.31708   0.0000000000
H          H       0.92806   0.40139   0.30819   0.0000000000
H          H       0.04292   0.63972   0.32727   0.0000000000
H          H       0.06378   0.62303   0.51256   0.0000000000
H          H       0.00832   0.60512   0.50421   0.0000000000
H          H       0.90240   0.41509   0.55247   0.0000000000
H          H       0.10192   0.59023   0.41431   0.0000000000
H          H       0.82921   0.47892   0.45448   0.0000000000
H          H       0.75474   0.43357   0.49290   0.0000000000
H          H       0.77798   0.35058   0.81067   0.0000000000
H          H       0.84955   0.38971   0.74358   0.0000000000
H          H       0.16842   0.51895   0.31240   0.0000000000
H          H       0.24332   0.55844   0.30877   0.0000000000
H          H       0.23868   0.66258   0.54296   0.0000000000
H          H       0.16491   0.62407   0.53490   0.0000000000
H          H       0.41294   0.70726   0.44200   0.0000000000
H          H       0.70050   2.24400   0.68907   0.0000000000
H          H       0.74382   2.28936   0.76543   0.0000000000
H          H       0.73645   2.23879   0.43293   0.0000000000
H          H       0.80203   2.30034   0.34632   0.0000000000
H          H       0.80842   2.32092   0.56877   0.0000000000
H          H       0.84996   2.29511   0.64282   0.0000000000
H          H       0.84703   2.27641   0.41669   0.0000000000
H          H       0.81507   2.22234   0.70350   0.0000000000
H          H       0.79239   2.20956   0.47857   0.0000000000
H          H       0.73752   2.19834   0.64911   0.0000000000
