data_crystal
 
_cell_length_a    43.90320
_cell_length_b    23.50030
_cell_length_c    21.37810
_cell_angle_alpha 90.00000
_cell_angle_beta  90.00000
_cell_angle_gamma 90.00000
 
_space_group_name_Hall 'P 1'
_space_group_name_H-M_alt  'P 1'
 
loop_
_symmetry_equiv_pos_as_xyz
 'x,y,z' 
 
loop_
_atom_site_label
_atom_site_type_symbol
_atom_site_fract_x
_atom_site_fract_y
_atom_site_fract_z
C          C       0.42181   0.57214   0.69657 
C          C       0.39887   0.56956   0.74154 
C          C       0.29256   0.59198   0.85791 
C          C       0.26984   0.59254   0.90345 
C          C       0.08106   0.66619   0.47858 
C          C       0.10364   0.62444   0.48136 
C          C       0.18048   0.46941   0.43631 
C          C       0.20152   0.42490   0.43440 
H          H       0.60354   0.68621   0.61344 
H          H       0.64401   0.68160   0.69262 
H          H       0.69361   0.73372   0.84832 
H          H       0.73230   0.73540   0.93056 
H          H       0.90179   0.73861   0.61180 
H          H       0.86208   0.66530   0.61685 
H          H       0.81974   0.49318   0.59286 
H          H       0.78348   0.41578   0.59014 
C          C       0.39723   0.34651   0.14906 
C          C       0.37429   0.34910   0.19406 
C          C       0.29587   0.30564   0.36305 
C          C       0.27349   0.30493   0.40928 
C          C       0.08179   0.95734   0.97575 
C          C       0.10404   0.91499   0.97860 
C          C       0.18464   0.76571   0.93321 
C          C       0.20571   0.72121   0.93179 
H          H       0.55989   0.45859   0.19783 
H          H       0.60015   0.46290   0.27736 
H          H       0.70023   0.44828   0.33851 
H          H       0.73882   0.44788   0.41973 
H          H       0.90378   0.02377   0.11398 
H          H       0.86474   0.94915   0.11938 
H          H       0.82775   0.77106   0.08967 
H          H       0.79137   0.69313   0.08765 
C          C       0.35418   0.38815   0.68086 
C          C       0.14822   0.42038   0.03560 
C          C       0.43595   0.60724   0.53822 
C          C       0.44485   0.61530   0.60085 
C          C       0.42101   0.61381   0.64974 
C          C       0.37482   0.60858   0.74039 
N          N       0.33023   0.64395   0.79340 
C          C       0.30601   0.64297   0.83810 
C          C       0.25943   0.64427   0.92943 
C          C       0.59424   0.58925   0.51779 
H          H       0.61307   0.57926   0.42641 
C          C       0.97539   0.26556   0.03083 
C          C       0.98505   0.32326   0.04714 
C          C       0.92107   0.29244   0.02557 
C          C       0.87562   0.37642   0.03120 
N          N       0.84853   0.45864   0.99223 
C          C       0.82663   0.50390   0.99267 
C          C       0.78344   0.59332   0.98904 
C          C       0.05500   0.24819   0.02310 
H          H       0.97076   0.35941   0.05781 
H          H       0.35673   0.42096   0.64572 
H          H       0.16334   0.41921   0.07536 
C          C       0.39678   0.65689   0.32662 
C          C       0.37475   0.65495   0.27964 
C          C       0.29380   0.69643   0.11504 
C          C       0.27111   0.69663   0.06938 
C          C       0.09837   0.00642   0.57599 
C          C       0.12051   0.04887   0.57901 
C          C       0.18212   0.24114   0.54549 
C          C       0.20300   0.28585   0.54420 
H          H       0.55658   0.55193   0.27349 
H          H       0.59497   0.54931   0.19031 
H          H       0.69107   0.55462   0.11782 
H          H       0.72994   0.55460   0.03726 
H          H       0.93320   0.04056   0.43573 
H          H       0.89402   0.11531   0.44071 
H          H       0.82301   0.21518   0.39004 
H          H       0.78672   0.29412   0.38679 
C          C       0.42433   0.41910   0.77545 
C          C       0.40246   0.42072   0.72833 
C          C       0.29871   0.40539   0.60453 
C          C       0.27591   0.40544   0.55930 
C          C       0.09966   0.29311   0.07519 
C          C       0.12220   0.33482   0.07801 
C          C       0.18668   0.52402   0.04801 
C          C       0.20767   0.56855   0.04628 
H          H       0.60546   0.31261   0.86428 
H          H       0.64440   0.31626   0.78174 
H          H       0.69883   0.26394   0.63579 
H          H       0.73791   0.26275   0.55460 
H          H       0.93478   0.33360   0.93990 
H          H       0.89507   0.40731   0.94481 
H          H       0.83051   0.51667   0.89381 
H          H       0.79396   0.59554   0.89007 
C          C       0.35053   0.39581   0.28755 
C          C       0.14675   0.86641   0.03517 
C          C       0.43597   0.60972   0.43694 
C          C       0.44496   0.62080   0.37494 
C          C       0.42160   0.61954   0.32505 
C          C       0.37738   0.61585   0.23028 
N          N       0.33177   0.64769   0.17808 
C          C       0.30803   0.64579   0.13228 
C          C       0.26097   0.64533   0.04197 
C          C       0.59421   0.59066   0.45619 
H          H       0.61312   0.57653   0.54686 
C          C       0.97541   0.02359   0.02986 
C          C       0.98505   0.96563   0.04508 
C          C       0.92118   0.99672   0.02453 
C          C       0.87648   0.91143   0.03043 
N          N       0.84822   0.83166   0.98906 
C          C       0.82669   0.78583   0.98990 
C          C       0.78356   0.69636   0.98764 
C          C       0.05497   0.04104   0.02238 
H          H       0.97076   0.92930   0.05492 
H          H       0.35071   0.43187   0.31909 
H          H       0.16007   0.86386   0.07756 
C          C       0.76175   0.64491   0.98694 
C          C       0.95332   0.14460   0.02441 
H          H       0.97489   0.14457   0.04346 
N          N       0.45326   0.61925   0.48792 
C          C       0.47527   0.62467   0.61908 
C          C       0.48438   0.64277   0.67772 
C          C       0.47530   0.63235   0.35797 
C          C       0.48440   0.65444   0.30099 
H          H       0.46997   0.66858   0.26319 
H          H       0.46996   0.65452   0.71650 
C          C       0.06395   0.80897   0.51374 
C          C       0.09277   0.82608   0.49605 
C          C       0.06395   0.90179   0.51350 
C          C       0.09277   0.88466   0.49597 
H          H       0.11184   0.79903   0.48477 
H          H       0.11184   0.91172   0.48464 
C          C       0.57819   0.42786   0.19657 
C          C       0.60113   0.43044   0.24154 
C          C       0.70744   0.40802   0.35791 
C          C       0.73016   0.40746   0.40345 
C          C       0.91894   0.33381   0.97858 
C          C       0.89636   0.37556   0.98136 
C          C       0.81952   0.53059   0.93631 
C          C       0.79848   0.57510   0.93440 
H          H       0.39646   0.31379   0.11344 
H          H       0.35599   0.31840   0.19262 
H          H       0.30639   0.26628   0.34832 
H          H       0.26770   0.26460   0.43056 
H          H       0.09821   0.26139   0.11180 
H          H       0.13792   0.33470   0.11685 
H          H       0.18026   0.50682   0.09286 
H          H       0.21652   0.58422   0.09014 
C          C       0.60277   0.65349   0.64906 
C          C       0.62571   0.65090   0.69406 
C          C       0.70413   0.69436   0.86305 
C          C       0.72651   0.69507   0.90928 
C          C       0.91821   0.04266   0.47575 
C          C       0.89596   0.08501   0.47860 
C          C       0.81536   0.23429   0.43321 
C          C       0.79429   0.27879   0.43179 
H          H       0.44011   0.54141   0.69783 
H          H       0.39985   0.53710   0.77736 
H          H       0.29977   0.55172   0.83851 
H          H       0.26118   0.55212   0.91973 
H          H       0.09622   0.97623   0.61398 
H          H       0.13526   0.05085   0.61938 
H          H       0.17225   0.22894   0.58967 
H          H       0.20863   0.30687   0.58765 
C          C       0.64582   0.61185   0.18086 
C          C       0.85178   0.57962   0.53560 
C          C       0.56405   0.39276   0.03822 
C          C       0.55515   0.38470   0.10085 
C          C       0.57899   0.38619   0.14974 
C          C       0.62518   0.39142   0.24039 
N          N       0.66977   0.35605   0.29340 
C          C       0.69399   0.35703   0.33810 
C          C       0.74057   0.35573   0.42943 
C          C       0.40576   0.41075   0.01779 
H          H       0.38693   0.42074   0.92641 
C          C       0.02461   0.73444   0.53083 
C          C       0.01495   0.67674   0.54714 
C          C       0.07893   0.70756   0.52557 
C          C       0.12438   0.62358   0.53120 
N          N       0.15147   0.54136   0.49223 
C          C       0.17337   0.49610   0.49267 
C          C       0.21656   0.40668   0.48904 
C          C       0.94500   0.75181   0.52310 
H          H       0.02924   0.64059   0.55781 
H          H       0.64327   0.57904   0.14572 
H          H       0.83666   0.58079   0.57536 
C          C       0.60322   0.34311   0.82662 
C          C       0.62525   0.34505   0.77964 
C          C       0.70620   0.30357   0.61504 
C          C       0.72889   0.30337   0.56938 
C          C       0.90163   0.99358   0.07599 
C          C       0.87949   0.95113   0.07901 
C          C       0.81788   0.75886   0.04549 
C          C       0.79700   0.71415   0.04420 
H          H       0.44342   0.44807   0.77349 
H          H       0.40503   0.45069   0.69031 
H          H       0.30893   0.44538   0.61782 
H          H       0.27006   0.44540   0.53726 
H          H       0.06680   0.95944   0.93573 
H          H       0.10598   0.88469   0.94071 
H          H       0.17699   0.78482   0.89004 
H          H       0.21328   0.70588   0.88679 
C          C       0.57567   0.58090   0.27545 
C          C       0.59754   0.57928   0.22833 
C          C       0.70129   0.59461   0.10453 
C          C       0.72409   0.59456   0.05930 
C          C       0.90034   0.70689   0.57519 
C          C       0.87780   0.66518   0.57801 
C          C       0.81332   0.47598   0.54801 
C          C       0.79233   0.43145   0.54628 
H          H       0.39454   0.68739   0.36428 
H          H       0.35560   0.68374   0.28174 
H          H       0.30117   0.73606   0.13579 
H          H       0.26209   0.73725   0.05460 
H          H       0.06522   0.66640   0.43990 
H          H       0.10493   0.59269   0.44481 
H          H       0.16949   0.48333   0.39381 
H          H       0.20604   0.40446   0.39007 
C          C       0.64947   0.60419   0.78755 
C          C       0.85325   0.13359   0.53517 
C          C       0.56403   0.39028   0.93694 
C          C       0.55504   0.37920   0.87494 
C          C       0.57840   0.38046   0.82505 
C          C       0.62262   0.38415   0.73028 
N          N       0.66823   0.35231   0.67808 
C          C       0.69197   0.35421   0.63228 
C          C       0.73903   0.35467   0.54197 
C          C       0.40579   0.40934   0.95619 
H          H       0.38688   0.42347   0.04686 
C          C       0.02459   0.97641   0.52986 
C          C       0.01495   0.03437   0.54508 
C          C       0.07882   0.00328   0.52453 
C          C       0.12352   0.08857   0.53043 
N          N       0.15178   0.16834   0.48906 
C          C       0.17331   0.21417   0.48990 
C          C       0.21644   0.30364   0.48764 
C          C       0.94503   0.95896   0.52238 
H          H       0.02924   0.07070   0.55492 
H          H       0.64929   0.56813   0.81909 
H          H       0.83993   0.13614   0.57756 
C          C       0.23825   0.35509   0.48694 
C          C       0.04668   0.85540   0.52441 
H          H       0.02511   0.85543   0.54346 
N          N       0.54674   0.38075   0.98792 
C          C       0.52473   0.37533   0.11908 
C          C       0.51562   0.35723   0.17772 
C          C       0.52470   0.36765   0.85797 
C          C       0.51560   0.34556   0.80099 
H          H       0.53003   0.33142   0.76319 
H          H       0.53004   0.34548   0.21650 
C          C       0.93605   0.19103   0.01374 
C          C       0.90723   0.17392   0.99605 
C          C       0.93605   0.09821   0.01350 
C          C       0.90723   0.11534   0.99597 
H          H       0.88816   0.20097   0.98477 
H          H       0.88816   0.08828   0.98464 
C          C       0.42181   0.42786   0.19657 
C          C       0.39887   0.43044   0.24154 
C          C       0.29256   0.40802   0.35791 
C          C       0.26984   0.40746   0.40345 
C          C       0.08106   0.33381   0.97858 
C          C       0.10364   0.37556   0.98136 
C          C       0.18048   0.53059   0.93631 
C          C       0.20152   0.57510   0.93440 
H          H       0.60354   0.31379   0.11344 
H          H       0.64401   0.31840   0.19262 
H          H       0.69361   0.26628   0.34832 
H          H       0.73230   0.26460   0.43056 
H          H       0.90179   0.26139   0.11180 
H          H       0.86208   0.33470   0.11685 
H          H       0.81974   0.50682   0.09286 
H          H       0.78348   0.58422   0.09014 
C          C       0.39723   0.65349   0.64906 
C          C       0.37429   0.65090   0.69406 
C          C       0.29587   0.69436   0.86305 
C          C       0.27349   0.69507   0.90928 
C          C       0.08179   0.04266   0.47575 
C          C       0.10404   0.08501   0.47860 
C          C       0.18464   0.23429   0.43321 
C          C       0.20571   0.27879   0.43179 
H          H       0.55989   0.54141   0.69783 
H          H       0.60015   0.53710   0.77736 
H          H       0.70023   0.55172   0.83851 
H          H       0.73882   0.55212   0.91973 
H          H       0.90378   0.97623   0.61398 
H          H       0.86474   0.05085   0.61938 
H          H       0.82775   0.22894   0.58967 
H          H       0.79137   0.30687   0.58765 
C          C       0.35418   0.61185   0.18086 
C          C       0.14822   0.57962   0.53560 
C          C       0.43595   0.39276   0.03822 
C          C       0.44485   0.38470   0.10085 
C          C       0.42101   0.38619   0.14974 
C          C       0.37482   0.39142   0.24039 
N          N       0.33023   0.35605   0.29340 
C          C       0.30601   0.35703   0.33810 
C          C       0.25943   0.35573   0.42943 
C          C       0.59424   0.41075   0.01779 
H          H       0.61307   0.42074   0.92641 
C          C       0.97539   0.73444   0.53083 
C          C       0.98505   0.67674   0.54714 
C          C       0.92107   0.70756   0.52557 
C          C       0.87562   0.62358   0.53120 
N          N       0.84853   0.54136   0.49223 
C          C       0.82663   0.49610   0.49267 
C          C       0.78344   0.40668   0.48904 
C          C       0.05500   0.75181   0.52310 
H          H       0.97076   0.64059   0.55781 
H          H       0.35673   0.57904   0.14572 
H          H       0.16334   0.58079   0.57536 
C          C       0.39678   0.34311   0.82662 
C          C       0.37475   0.34505   0.77964 
C          C       0.29380   0.30357   0.61504 
C          C       0.27111   0.30337   0.56938 
C          C       0.09837   0.99358   0.07599 
C          C       0.12051   0.95113   0.07901 
C          C       0.18212   0.75886   0.04549 
C          C       0.20300   0.71415   0.04420 
H          H       0.55658   0.44807   0.77349 
H          H       0.59497   0.45069   0.69031 
H          H       0.69107   0.44538   0.61782 
H          H       0.72994   0.44540   0.53726 
H          H       0.93320   0.95944   0.93573 
H          H       0.89402   0.88469   0.94071 
H          H       0.82301   0.78482   0.89004 
H          H       0.78672   0.70588   0.88679 
C          C       0.42433   0.58090   0.27545 
C          C       0.40246   0.57928   0.22833 
C          C       0.29871   0.59461   0.10453 
C          C       0.27591   0.59456   0.05930 
C          C       0.09966   0.70689   0.57519 
C          C       0.12220   0.66518   0.57801 
C          C       0.18668   0.47598   0.54801 
C          C       0.20767   0.43145   0.54628 
H          H       0.60546   0.68739   0.36428 
H          H       0.64440   0.68374   0.28174 
H          H       0.69883   0.73606   0.13579 
H          H       0.73791   0.73725   0.05460 
H          H       0.93478   0.66640   0.43990 
H          H       0.89507   0.59269   0.44481 
H          H       0.83051   0.48333   0.39381 
H          H       0.79396   0.40446   0.39007 
C          C       0.35053   0.60419   0.78755 
C          C       0.14675   0.13359   0.53517 
C          C       0.43597   0.39028   0.93694 
C          C       0.44496   0.37920   0.87494 
C          C       0.42160   0.38046   0.82505 
C          C       0.37738   0.38415   0.73028 
N          N       0.33177   0.35231   0.67808 
C          C       0.30803   0.35421   0.63228 
C          C       0.26097   0.35467   0.54197 
C          C       0.59421   0.40934   0.95619 
H          H       0.61312   0.42347   0.04686 
C          C       0.97541   0.97641   0.52986 
C          C       0.98505   0.03437   0.54508 
C          C       0.92118   0.00328   0.52453 
C          C       0.87648   0.08857   0.53043 
N          N       0.84822   0.16834   0.48906 
C          C       0.82669   0.21417   0.48990 
C          C       0.78356   0.30364   0.48764 
C          C       0.05497   0.95896   0.52238 
H          H       0.97076   0.07070   0.55492 
H          H       0.35071   0.56813   0.81909 
H          H       0.16007   0.13614   0.57756 
C          C       0.76175   0.35509   0.48694 
C          C       0.95332   0.85540   0.52441 
H          H       0.97489   0.85543   0.54346 
N          N       0.45326   0.38075   0.98792 
C          C       0.47527   0.37533   0.11908 
C          C       0.48438   0.35723   0.17772 
C          C       0.47530   0.36765   0.85797 
C          C       0.48440   0.34556   0.80099 
H          H       0.46997   0.33142   0.76319 
H          H       0.46996   0.34548   0.21650 
C          C       0.06395   0.19103   0.01374 
C          C       0.09277   0.17392   0.99605 
C          C       0.06395   0.09821   0.01350 
C          C       0.09277   0.11534   0.99597 
H          H       0.11184   0.20097   0.98477 
H          H       0.11184   0.08828   0.98464 
C          C       0.57819   0.57214   0.69657 
C          C       0.60113   0.56956   0.74154 
C          C       0.70744   0.59198   0.85791 
C          C       0.73016   0.59254   0.90345 
C          C       0.91894   0.66619   0.47858 
C          C       0.89636   0.62444   0.48136 
C          C       0.81952   0.46941   0.43631 
C          C       0.79848   0.42490   0.43440 
H          H       0.39646   0.68621   0.61344 
H          H       0.35599   0.68160   0.69262 
H          H       0.30639   0.73372   0.84832 
H          H       0.26770   0.73540   0.93056 
H          H       0.09821   0.73861   0.61180 
H          H       0.13792   0.66530   0.61685 
H          H       0.18026   0.49318   0.59286 
H          H       0.21652   0.41578   0.59014 
C          C       0.60277   0.34651   0.14906 
C          C       0.62571   0.34910   0.19406 
C          C       0.70413   0.30564   0.36305 
C          C       0.72651   0.30493   0.40928 
C          C       0.91821   0.95734   0.97575 
C          C       0.89596   0.91499   0.97860 
C          C       0.81536   0.76571   0.93321 
C          C       0.79429   0.72121   0.93179 
H          H       0.44011   0.45859   0.19783 
H          H       0.39985   0.46290   0.27736 
H          H       0.29977   0.44828   0.33851 
H          H       0.26118   0.44788   0.41973 
H          H       0.09622   0.02377   0.11398 
H          H       0.13526   0.94915   0.11938 
H          H       0.17225   0.77106   0.08967 
H          H       0.20863   0.69313   0.08765 
C          C       0.64582   0.38815   0.68086 
C          C       0.85178   0.42038   0.03560 
C          C       0.56405   0.60724   0.53822 
C          C       0.55515   0.61530   0.60085 
C          C       0.57899   0.61381   0.64974 
C          C       0.62518   0.60858   0.74039 
N          N       0.66977   0.64395   0.79340 
C          C       0.69399   0.64297   0.83810 
C          C       0.74057   0.64427   0.92943 
C          C       0.40576   0.58925   0.51779 
H          H       0.38693   0.57926   0.42641 
C          C       0.02461   0.26556   0.03083 
C          C       0.01495   0.32326   0.04714 
C          C       0.07893   0.29244   0.02557 
C          C       0.12438   0.37642   0.03120 
N          N       0.15147   0.45864   0.99223 
C          C       0.17337   0.50390   0.99267 
C          C       0.21656   0.59332   0.98904 
C          C       0.94500   0.24819   0.02310 
H          H       0.02924   0.35941   0.05781 
H          H       0.64327   0.42096   0.64572 
H          H       0.83666   0.41921   0.07536 
C          C       0.60322   0.65689   0.32662 
C          C       0.62525   0.65495   0.27964 
C          C       0.70620   0.69643   0.11504 
C          C       0.72889   0.69663   0.06938 
C          C       0.90163   0.00642   0.57599 
C          C       0.87949   0.04887   0.57901 
C          C       0.81788   0.24114   0.54549 
C          C       0.79700   0.28585   0.54420 
H          H       0.44342   0.55193   0.27349 
H          H       0.40503   0.54931   0.19031 
H          H       0.30893   0.55462   0.11782 
H          H       0.27006   0.55460   0.03726 
H          H       0.06680   0.04056   0.43573 
H          H       0.10598   0.11531   0.44071 
H          H       0.17699   0.21518   0.39004 
H          H       0.21328   0.29412   0.38679 
C          C       0.57567   0.41910   0.77545 
C          C       0.59754   0.42072   0.72833 
C          C       0.70129   0.40539   0.60453 
C          C       0.72409   0.40544   0.55930 
C          C       0.90034   0.29311   0.07519 
C          C       0.87780   0.33482   0.07801 
C          C       0.81332   0.52402   0.04801 
C          C       0.79233   0.56855   0.04628 
H          H       0.39454   0.31261   0.86428 
H          H       0.35560   0.31626   0.78174 
H          H       0.30117   0.26394   0.63579 
H          H       0.26209   0.26275   0.55460 
H          H       0.06522   0.33360   0.93990 
H          H       0.10493   0.40731   0.94481 
H          H       0.16949   0.51667   0.89381 
H          H       0.20604   0.59554   0.89007 
C          C       0.64947   0.39581   0.28755 
C          C       0.85325   0.86641   0.03517 
C          C       0.56403   0.60972   0.43694 
C          C       0.55504   0.62080   0.37494 
C          C       0.57840   0.61954   0.32505 
C          C       0.62262   0.61585   0.23028 
N          N       0.66823   0.64769   0.17808 
C          C       0.69197   0.64579   0.13228 
C          C       0.73903   0.64533   0.04197 
C          C       0.40579   0.59066   0.45619 
H          H       0.38688   0.57653   0.54686 
C          C       0.02459   0.02359   0.02986 
C          C       0.01495   0.96563   0.04508 
C          C       0.07882   0.99672   0.02453 
C          C       0.12352   0.91143   0.03043 
N          N       0.15178   0.83166   0.98906 
C          C       0.17331   0.78583   0.98990 
C          C       0.21644   0.69636   0.98764 
C          C       0.94503   0.04104   0.02238 
H          H       0.02924   0.92930   0.05492 
H          H       0.64929   0.43187   0.31909 
H          H       0.83993   0.86386   0.07756 
C          C       0.23825   0.64491   0.98694 
C          C       0.04668   0.14460   0.02441 
H          H       0.02511   0.14457   0.04346 
N          N       0.54674   0.61925   0.48792 
C          C       0.52473   0.62467   0.61908 
C          C       0.51562   0.64277   0.67772 
C          C       0.52470   0.63235   0.35797 
C          C       0.51560   0.65444   0.30099 
H          H       0.53003   0.66858   0.26319 
H          H       0.53004   0.65452   0.71650 
C          C       0.93605   0.80897   0.51374 
C          C       0.90723   0.82608   0.49605 
C          C       0.93605   0.90179   0.51350 
C          C       0.90723   0.88466   0.49597 
H          H       0.88816   0.79903   0.48477 
H          H       0.88816   0.91172   0.48464 
C          C       0.50000   0.61918   0.39225 
H          H       0.50000   0.59724   0.43430 
C          C       0.50000   0.61369   0.58392 
H          H       0.50000   0.59511   0.53998 
C          C       0.50000   0.38082   0.89225 
H          H       0.50000   0.40276   0.93430 
C          C       0.50000   0.38631   0.08392 
H          H       0.50000   0.40489   0.03998 
N          N       0.00000   0.76751   0.52112 
N          N       0.00000   0.94320   0.52073 
N          N       0.00000   0.23249   0.02112 
N          N       0.00000   0.05680   0.02073 
