data_crystal
 
_cell_length_a    43.77880
_cell_length_b    23.47570
_cell_length_c    21.37820
_cell_angle_alpha 90.00000
_cell_angle_beta  90.00000
_cell_angle_gamma 90.00000
 
_symmetry_space_group_name_Hall 'P 1'
_symmetry_space_group_name_H-M  'P 1'
 
loop_
_symmetry_equiv_pos_as_xyz
 'x,y,z' 
 
loop_
_atom_site_label
_atom_site_type_symbol
_atom_site_fract_x
_atom_site_fract_y
_atom_site_fract_z
_atom_site_charge
C          C       0.42058   0.57478   0.69528   0.0000000000
C          C       0.39758   0.57272   0.74017   0.0000000000
C          C       0.29270   0.59968   0.85938   0.0000000000
C          C       0.26997   0.60084   0.90488   0.0000000000
C          C       0.08285   0.65984   0.47406   0.0000000000
C          C       0.10500   0.61741   0.47786   0.0000000000
C          C       0.18067   0.46029   0.43615   0.0000000000
C          C       0.20175   0.41589   0.43434   0.0000000000
H          H       0.60139   0.69437   0.61748   0.0000000000
H          H       0.64206   0.69054   0.69630   0.0000000000
H          H       0.69339   0.74130   0.84782   0.0000000000
H          H       0.73224   0.74407   0.92972   0.0000000000
H          H       0.90607   0.72263   0.61590   0.0000000000
H          H       0.86701   0.64832   0.62264   0.0000000000
H          H       0.82150   0.48104   0.59351   0.0000000000
H          H       0.78504   0.40410   0.59084   0.0000000000
C          C       0.39845   0.33967   0.15164   0.0000000000
C          C       0.37538   0.34186   0.19642   0.0000000000
C          C       0.29605   0.29788   0.36305   0.0000000000
C          C       0.27358   0.29654   0.40909   0.0000000000
C          C       0.08367   0.96920   0.97210   0.0000000000
C          C       0.10583   0.92678   0.97588   0.0000000000
C          C       0.18506   0.77526   0.93372   0.0000000000
C          C       0.20595   0.73051   0.93231   0.0000000000
H          H       0.56204   0.45772   0.19510   0.0000000000
H          H       0.60241   0.46119   0.27446   0.0000000000
H          H       0.70017   0.44088   0.34060   0.0000000000
H          H       0.73870   0.43937   0.42179   0.0000000000
H          H       0.90755   0.02797   0.11665   0.0000000000
H          H       0.86859   0.95343   0.12355   0.0000000000
H          H       0.82633   0.78215   0.09080   0.0000000000
H          H       0.79015   0.70423   0.08878   0.0000000000
C          C       0.35330   0.38429   0.68281   0.0000000000
C          C       0.14675   0.43185   0.03677   0.0000000000
C          C       0.43611   0.61292   0.53896   0.0000000000
C          C       0.44509   0.61976   0.60192   0.0000000000
C          C       0.42108   0.61844   0.65055   0.0000000000
C          C       0.37468   0.61407   0.74084   0.0000000000
N          N       0.33056   0.65083   0.79440   0.0000000000
C          C       0.30623   0.65040   0.83891   0.0000000000
C          C       0.25950   0.65291   0.92997   0.0000000000
C          C       0.59441   0.59771   0.51861   0.0000000000
H          H       0.61367   0.58940   0.42740   0.0000000000
C          C       0.97543   0.27492   0.02476   0.0000000000
C          C       0.98511   0.33353   0.03576   0.0000000000
C          C       0.92130   0.30200   0.02377   0.0000000000
C          C       0.87667   0.38727   0.03140   0.0000000000
N          N       0.84887   0.46849   0.99204   0.0000000000
C          C       0.82716   0.51405   0.99281   0.0000000000
C          C       0.78379   0.60307   0.98942   0.0000000000
C          C       0.05506   0.25731   0.02035   0.0000000000
H          H       0.97092   0.37049   0.04318   0.0000000000
H          H       0.35474   0.41888   0.64944   0.0000000000
H          H       0.16057   0.43251   0.07854   0.0000000000
C          C       0.39813   0.66343   0.32488   0.0000000000
C          C       0.37583   0.66157   0.27840   0.0000000000
C          C       0.29484   0.70382   0.11453   0.0000000000
C          C       0.27207   0.70474   0.06902   0.0000000000
C          C       0.09612   0.00014   0.57721   0.0000000000
C          C       0.11824   0.04252   0.58104   0.0000000000
C          C       0.18319   0.23041   0.54637   0.0000000000
C          C       0.20399   0.27521   0.54511   0.0000000000
H          H       0.55966   0.54949   0.27881   0.0000000000
H          H       0.59845   0.54704   0.19636   0.0000000000
H          H       0.69292   0.56105   0.12038   0.0000000000
H          H       0.73172   0.56230   0.03987   0.0000000000
H          H       0.92969   0.02656   0.42987   0.0000000000
H          H       0.89067   0.10137   0.43643   0.0000000000
H          H       0.82281   0.20606   0.39040   0.0000000000
H          H       0.78681   0.28543   0.38724   0.0000000000
C          C       0.42244   0.41900   0.77893   0.0000000000
C          C       0.40034   0.42050   0.73223   0.0000000000
C          C       0.29770   0.39847   0.60628   0.0000000000
C          C       0.27487   0.39776   0.56111   0.0000000000
C          C       0.09696   0.30656   0.07718   0.0000000000
C          C       0.11914   0.34883   0.08093   0.0000000000
C          C       0.18543   0.53524   0.04850   0.0000000000
C          C       0.20652   0.57956   0.04684   0.0000000000
H          H       0.60283   0.30381   0.86048   0.0000000000
H          H       0.64219   0.30719   0.77876   0.0000000000
H          H       0.69699   0.25670   0.63437   0.0000000000
H          H       0.73625   0.25435   0.55345   0.0000000000
H          H       0.93113   0.33708   0.93258   0.0000000000
H          H       0.89213   0.41186   0.93918   0.0000000000
H          H       0.82976   0.52501   0.89329   0.0000000000
H          H       0.79318   0.60372   0.88973   0.0000000000
C          C       0.35030   0.38981   0.28787   0.0000000000
C          C       0.14651   0.87561   0.03601   0.0000000000
C          C       0.43605   0.61512   0.43742   0.0000000000
C          C       0.44512   0.62440   0.37496   0.0000000000
C          C       0.42149   0.62296   0.32557   0.0000000000
C          C       0.37675   0.61941   0.23180   0.0000000000
N          N       0.33202   0.65373   0.17831   0.0000000000
C          C       0.30811   0.65254   0.13281   0.0000000000
C          C       0.26093   0.65369   0.04271   0.0000000000
C          C       0.59444   0.59898   0.45699   0.0000000000
H          H       0.61361   0.58694   0.54778   0.0000000000
C          C       0.97543   0.03272   0.02340   0.0000000000
C          C       0.98510   0.97397   0.03340   0.0000000000
C          C       0.92130   0.00587   0.02281   0.0000000000
C          C       0.87673   0.92053   0.03049   0.0000000000
N          N       0.84753   0.84176   0.98945   0.0000000000
C          C       0.82596   0.79600   0.99054   0.0000000000
C          C       0.78307   0.70611   0.98830   0.0000000000
C          C       0.05503   0.05050   0.01943   0.0000000000
H          H       0.97089   0.93691   0.04004   0.0000000000
H          H       0.34990   0.42647   0.31861   0.0000000000
H          H       0.15892   0.87233   0.07952   0.0000000000
C          C       0.76171   0.65406   0.98750   0.0000000000
N          N       0.95362   0.15393   0.01944   0.0000000000
N          N       0.45369   0.62293   0.48839   0.0000000000
C          C       0.47546   0.62697   0.62125   0.0000000000
C          C       0.48447   0.64042   0.68141   0.0000000000
C          C       0.47548   0.63343   0.35664   0.0000000000
C          C       0.48449   0.64926   0.29717   0.0000000000
H          H       0.47014   0.65928   0.25760   0.0000000000
H          H       0.47009   0.64917   0.72128   0.0000000000
C          C       0.06454   0.79994   0.51477   0.0000000000
C          C       0.09423   0.81691   0.50624   0.0000000000
C          C       0.06451   0.89220   0.51440   0.0000000000
C          C       0.09421   0.87523   0.50606   0.0000000000
H          H       0.11395   0.78995   0.50101   0.0000000000
H          H       0.11391   0.90222   0.50069   0.0000000000
C          C       0.57942   0.42522   0.19528   0.0000000000
C          C       0.60242   0.42728   0.24017   0.0000000000
C          C       0.70730   0.40032   0.35938   0.0000000000
C          C       0.73003   0.39916   0.40488   0.0000000000
C          C       0.91715   0.34016   0.97406   0.0000000000
C          C       0.89500   0.38259   0.97786   0.0000000000
C          C       0.81933   0.53971   0.93615   0.0000000000
C          C       0.79825   0.58411   0.93434   0.0000000000
H          H       0.39861   0.30563   0.11748   0.0000000000
H          H       0.35794   0.30946   0.19630   0.0000000000
H          H       0.30661   0.25870   0.34782   0.0000000000
H          H       0.26776   0.25593   0.42972   0.0000000000
H          H       0.09393   0.27737   0.11590   0.0000000000
H          H       0.13299   0.35168   0.12264   0.0000000000
H          H       0.17850   0.51896   0.09351   0.0000000000
H          H       0.21496   0.59590   0.09084   0.0000000000
C          C       0.60155   0.66033   0.65164   0.0000000000
C          C       0.62462   0.65814   0.69642   0.0000000000
C          C       0.70395   0.70212   0.86305   0.0000000000
C          C       0.72642   0.70346   0.90909   0.0000000000
C          C       0.91633   0.03080   0.47210   0.0000000000
C          C       0.89417   0.07322   0.47588   0.0000000000
C          C       0.81494   0.22474   0.43372   0.0000000000
C          C       0.79405   0.26949   0.43231   0.0000000000
H          H       0.43796   0.54228   0.69510   0.0000000000
H          H       0.39759   0.53881   0.77446   0.0000000000
H          H       0.29983   0.55912   0.84060   0.0000000000
H          H       0.26130   0.56063   0.92179   0.0000000000
H          H       0.09245   0.97203   0.61665   0.0000000000
H          H       0.13141   0.04657   0.62355   0.0000000000
H          H       0.17367   0.21785   0.59080   0.0000000000
H          H       0.20985   0.29577   0.58878   0.0000000000
C          C       0.64670   0.61571   0.18281   0.0000000000
C          C       0.85325   0.56815   0.53677   0.0000000000
C          C       0.56389   0.38708   0.03896   0.0000000000
C          C       0.55491   0.38024   0.10192   0.0000000000
C          C       0.57892   0.38156   0.15055   0.0000000000
C          C       0.62532   0.38593   0.24084   0.0000000000
N          N       0.66944   0.34917   0.29440   0.0000000000
C          C       0.69377   0.34960   0.33891   0.0000000000
C          C       0.74050   0.34709   0.42997   0.0000000000
C          C       0.40559   0.40229   0.01861   0.0000000000
H          H       0.38633   0.41060   0.92740   0.0000000000
C          C       0.02457   0.72508   0.52476   0.0000000000
C          C       0.01489   0.66647   0.53576   0.0000000000
C          C       0.07870   0.69800   0.52377   0.0000000000
C          C       0.12333   0.61273   0.53140   0.0000000000
N          N       0.15113   0.53151   0.49204   0.0000000000
C          C       0.17284   0.48595   0.49281   0.0000000000
C          C       0.21621   0.39693   0.48942   0.0000000000
C          C       0.94494   0.74269   0.52035   0.0000000000
H          H       0.02908   0.62951   0.54318   0.0000000000
H          H       0.64526   0.58112   0.14944   0.0000000000
H          H       0.83943   0.56749   0.57854   0.0000000000
C          C       0.60187   0.33657   0.82488   0.0000000000
C          C       0.62417   0.33843   0.77840   0.0000000000
C          C       0.70516   0.29618   0.61453   0.0000000000
C          C       0.72793   0.29526   0.56902   0.0000000000
C          C       0.90388   0.99986   0.07721   0.0000000000
C          C       0.88176   0.95748   0.08104   0.0000000000
C          C       0.81681   0.76959   0.04637   0.0000000000
C          C       0.79601   0.72479   0.04511   0.0000000000
H          H       0.44034   0.45051   0.77881   0.0000000000
H          H       0.40155   0.45296   0.69636   0.0000000000
H          H       0.30708   0.43895   0.62038   0.0000000000
H          H       0.26828   0.43770   0.53987   0.0000000000
H          H       0.07031   0.97344   0.92987   0.0000000000
H          H       0.10933   0.89863   0.93643   0.0000000000
H          H       0.17719   0.79394   0.89040   0.0000000000
H          H       0.21319   0.71457   0.88724   0.0000000000
C          C       0.57756   0.58100   0.27893   0.0000000000
C          C       0.59966   0.57950   0.23223   0.0000000000
C          C       0.70230   0.60153   0.10628   0.0000000000
C          C       0.72513   0.60224   0.06111   0.0000000000
C          C       0.90304   0.69344   0.57718   0.0000000000
C          C       0.88086   0.65117   0.58093   0.0000000000
C          C       0.81457   0.46476   0.54850   0.0000000000
C          C       0.79348   0.42044   0.54684   0.0000000000
H          H       0.39717   0.69619   0.36048   0.0000000000
H          H       0.35781   0.69281   0.27876   0.0000000000
H          H       0.30301   0.74330   0.13437   0.0000000000
H          H       0.26375   0.74565   0.05345   0.0000000000
H          H       0.06887   0.66292   0.43258   0.0000000000
H          H       0.10787   0.58814   0.43918   0.0000000000
H          H       0.17024   0.47499   0.39329   0.0000000000
H          H       0.20682   0.39628   0.38973   0.0000000000
C          C       0.64970   0.61019   0.78787   0.0000000000
C          C       0.85349   0.12439   0.53601   0.0000000000
C          C       0.56395   0.38488   0.93742   0.0000000000
C          C       0.55488   0.37560   0.87496   0.0000000000
C          C       0.57851   0.37704   0.82557   0.0000000000
C          C       0.62325   0.38059   0.73180   0.0000000000
N          N       0.66798   0.34627   0.67831   0.0000000000
C          C       0.69189   0.34746   0.63281   0.0000000000
C          C       0.73907   0.34631   0.54271   0.0000000000
C          C       0.40556   0.40102   0.95699   0.0000000000
H          H       0.38639   0.41306   0.04778   0.0000000000
C          C       0.02457   0.96728   0.52340   0.0000000000
C          C       0.01490   0.02603   0.53340   0.0000000000
C          C       0.07870   0.99413   0.52281   0.0000000000
C          C       0.12327   0.07947   0.53049   0.0000000000
N          N       0.15247   0.15824   0.48945   0.0000000000
C          C       0.17404   0.20400   0.49054   0.0000000000
C          C       0.21693   0.29389   0.48830   0.0000000000
C          C       0.94497   0.94950   0.51943   0.0000000000
H          H       0.02911   0.06309   0.54004   0.0000000000
H          H       0.65010   0.57353   0.81861   0.0000000000
H          H       0.84108   0.12767   0.57952   0.0000000000
C          C       0.23829   0.34594   0.48750   0.0000000000
N          N       0.04638   0.84607   0.51944   0.0000000000
N          N       0.54631   0.37707   0.98839   0.0000000000
C          C       0.52454   0.37303   0.12125   0.0000000000
C          C       0.51553   0.35958   0.18141   0.0000000000
C          C       0.52452   0.36657   0.85664   0.0000000000
C          C       0.51551   0.35074   0.79717   0.0000000000
H          H       0.52986   0.34072   0.75760   0.0000000000
H          H       0.52991   0.35083   0.22128   0.0000000000
C          C       0.93546   0.20006   0.01477   0.0000000000
C          C       0.90577   0.18309   0.00624   0.0000000000
C          C       0.93549   0.10780   0.01440   0.0000000000
C          C       0.90579   0.12477   0.00606   0.0000000000
H          H       0.88605   0.21005   0.00101   0.0000000000
H          H       0.88609   0.09778   0.00069   0.0000000000
C          C       0.42058   0.42522   0.19528   0.0000000000
C          C       0.39758   0.42728   0.24017   0.0000000000
C          C       0.29270   0.40032   0.35938   0.0000000000
C          C       0.26997   0.39916   0.40488   0.0000000000
C          C       0.08285   0.34016   0.97406   0.0000000000
C          C       0.10500   0.38259   0.97786   0.0000000000
C          C       0.18067   0.53971   0.93615   0.0000000000
C          C       0.20175   0.58411   0.93434   0.0000000000
H          H       0.60139   0.30563   0.11748   0.0000000000
H          H       0.64206   0.30946   0.19630   0.0000000000
H          H       0.69339   0.25870   0.34782   0.0000000000
H          H       0.73224   0.25593   0.42972   0.0000000000
H          H       0.90607   0.27737   0.11590   0.0000000000
H          H       0.86701   0.35168   0.12264   0.0000000000
H          H       0.82150   0.51896   0.09351   0.0000000000
H          H       0.78504   0.59590   0.09084   0.0000000000
C          C       0.39845   0.66033   0.65164   0.0000000000
C          C       0.37538   0.65814   0.69642   0.0000000000
C          C       0.29605   0.70212   0.86305   0.0000000000
C          C       0.27358   0.70346   0.90909   0.0000000000
C          C       0.08367   0.03080   0.47210   0.0000000000
C          C       0.10583   0.07322   0.47588   0.0000000000
C          C       0.18506   0.22474   0.43372   0.0000000000
C          C       0.20595   0.26949   0.43231   0.0000000000
H          H       0.56204   0.54228   0.69510   0.0000000000
H          H       0.60241   0.53881   0.77446   0.0000000000
H          H       0.70017   0.55912   0.84060   0.0000000000
H          H       0.73870   0.56063   0.92179   0.0000000000
H          H       0.90755   0.97203   0.61665   0.0000000000
H          H       0.86859   0.04657   0.62355   0.0000000000
H          H       0.82633   0.21785   0.59080   0.0000000000
H          H       0.79015   0.29577   0.58878   0.0000000000
C          C       0.35330   0.61571   0.18281   0.0000000000
C          C       0.14675   0.56815   0.53677   0.0000000000
C          C       0.43611   0.38708   0.03896   0.0000000000
C          C       0.44509   0.38024   0.10192   0.0000000000
C          C       0.42108   0.38156   0.15055   0.0000000000
C          C       0.37468   0.38593   0.24084   0.0000000000
N          N       0.33056   0.34917   0.29440   0.0000000000
C          C       0.30623   0.34960   0.33891   0.0000000000
C          C       0.25950   0.34709   0.42997   0.0000000000
C          C       0.59441   0.40229   0.01861   0.0000000000
H          H       0.61367   0.41060   0.92740   0.0000000000
C          C       0.97543   0.72508   0.52476   0.0000000000
C          C       0.98511   0.66647   0.53576   0.0000000000
C          C       0.92130   0.69800   0.52377   0.0000000000
C          C       0.87667   0.61273   0.53140   0.0000000000
N          N       0.84887   0.53151   0.49204   0.0000000000
C          C       0.82716   0.48595   0.49281   0.0000000000
C          C       0.78379   0.39693   0.48942   0.0000000000
C          C       0.05506   0.74269   0.52035   0.0000000000
H          H       0.97092   0.62951   0.54318   0.0000000000
H          H       0.35474   0.58112   0.14944   0.0000000000
H          H       0.16057   0.56749   0.57854   0.0000000000
C          C       0.39813   0.33657   0.82488   0.0000000000
C          C       0.37583   0.33843   0.77840   0.0000000000
C          C       0.29484   0.29618   0.61453   0.0000000000
C          C       0.27207   0.29526   0.56902   0.0000000000
C          C       0.09612   0.99986   0.07721   0.0000000000
C          C       0.11824   0.95748   0.08104   0.0000000000
C          C       0.18319   0.76959   0.04637   0.0000000000
C          C       0.20399   0.72479   0.04511   0.0000000000
H          H       0.55966   0.45051   0.77881   0.0000000000
H          H       0.59845   0.45296   0.69636   0.0000000000
H          H       0.69292   0.43895   0.62038   0.0000000000
H          H       0.73172   0.43770   0.53987   0.0000000000
H          H       0.92969   0.97344   0.92987   0.0000000000
H          H       0.89067   0.89863   0.93643   0.0000000000
H          H       0.82281   0.79394   0.89040   0.0000000000
H          H       0.78681   0.71457   0.88724   0.0000000000
C          C       0.42244   0.58100   0.27893   0.0000000000
C          C       0.40034   0.57950   0.23223   0.0000000000
C          C       0.29770   0.60153   0.10628   0.0000000000
C          C       0.27487   0.60224   0.06111   0.0000000000
C          C       0.09696   0.69344   0.57718   0.0000000000
C          C       0.11914   0.65117   0.58093   0.0000000000
C          C       0.18543   0.46476   0.54850   0.0000000000
C          C       0.20652   0.42044   0.54684   0.0000000000
H          H       0.60283   0.69619   0.36048   0.0000000000
H          H       0.64219   0.69281   0.27876   0.0000000000
H          H       0.69699   0.74330   0.13437   0.0000000000
H          H       0.73625   0.74565   0.05345   0.0000000000
H          H       0.93113   0.66292   0.43258   0.0000000000
H          H       0.89213   0.58814   0.43918   0.0000000000
H          H       0.82976   0.47499   0.39329   0.0000000000
H          H       0.79318   0.39628   0.38973   0.0000000000
C          C       0.35030   0.61019   0.78787   0.0000000000
C          C       0.14651   0.12439   0.53601   0.0000000000
C          C       0.43605   0.38488   0.93742   0.0000000000
C          C       0.44512   0.37560   0.87496   0.0000000000
C          C       0.42149   0.37704   0.82557   0.0000000000
C          C       0.37675   0.38059   0.73180   0.0000000000
N          N       0.33202   0.34627   0.67831   0.0000000000
C          C       0.30811   0.34746   0.63281   0.0000000000
C          C       0.26093   0.34631   0.54271   0.0000000000
C          C       0.59444   0.40102   0.95699   0.0000000000
H          H       0.61361   0.41306   0.04778   0.0000000000
C          C       0.97543   0.96728   0.52340   0.0000000000
C          C       0.98510   0.02603   0.53340   0.0000000000
C          C       0.92130   0.99413   0.52281   0.0000000000
C          C       0.87673   0.07947   0.53049   0.0000000000
N          N       0.84753   0.15824   0.48945   0.0000000000
C          C       0.82596   0.20400   0.49054   0.0000000000
C          C       0.78307   0.29389   0.48830   0.0000000000
C          C       0.05503   0.94950   0.51943   0.0000000000
H          H       0.97089   0.06309   0.54004   0.0000000000
H          H       0.34990   0.57353   0.81861   0.0000000000
H          H       0.15892   0.12767   0.57952   0.0000000000
C          C       0.76171   0.34594   0.48750   0.0000000000
N          N       0.95362   0.84607   0.51944   0.0000000000
N          N       0.45369   0.37707   0.98839   0.0000000000
C          C       0.47546   0.37303   0.12125   0.0000000000
C          C       0.48447   0.35958   0.18141   0.0000000000
C          C       0.47548   0.36657   0.85664   0.0000000000
C          C       0.48449   0.35074   0.79717   0.0000000000
H          H       0.47014   0.34072   0.75760   0.0000000000
H          H       0.47009   0.35083   0.22128   0.0000000000
C          C       0.06454   0.20006   0.01477   0.0000000000
C          C       0.09423   0.18309   0.00624   0.0000000000
C          C       0.06451   0.10780   0.01440   0.0000000000
C          C       0.09421   0.12477   0.00606   0.0000000000
H          H       0.11395   0.21005   0.00101   0.0000000000
H          H       0.11391   0.09778   0.00069   0.0000000000
C          C       0.57942   0.57478   0.69528   0.0000000000
C          C       0.60242   0.57272   0.74017   0.0000000000
C          C       0.70730   0.59968   0.85938   0.0000000000
C          C       0.73003   0.60084   0.90488   0.0000000000
C          C       0.91715   0.65984   0.47406   0.0000000000
C          C       0.89500   0.61741   0.47786   0.0000000000
C          C       0.81933   0.46029   0.43615   0.0000000000
C          C       0.79825   0.41589   0.43434   0.0000000000
H          H       0.39861   0.69437   0.61748   0.0000000000
H          H       0.35794   0.69054   0.69630   0.0000000000
H          H       0.30661   0.74130   0.84782   0.0000000000
H          H       0.26776   0.74407   0.92972   0.0000000000
H          H       0.09393   0.72263   0.61590   0.0000000000
H          H       0.13299   0.64832   0.62264   0.0000000000
H          H       0.17850   0.48104   0.59351   0.0000000000
H          H       0.21496   0.40410   0.59084   0.0000000000
C          C       0.60155   0.33967   0.15164   0.0000000000
C          C       0.62462   0.34186   0.19642   0.0000000000
C          C       0.70395   0.29788   0.36305   0.0000000000
C          C       0.72642   0.29654   0.40909   0.0000000000
C          C       0.91633   0.96920   0.97210   0.0000000000
C          C       0.89417   0.92678   0.97588   0.0000000000
C          C       0.81494   0.77526   0.93372   0.0000000000
C          C       0.79405   0.73051   0.93231   0.0000000000
H          H       0.43796   0.45772   0.19510   0.0000000000
H          H       0.39759   0.46119   0.27446   0.0000000000
H          H       0.29983   0.44088   0.34060   0.0000000000
H          H       0.26130   0.43937   0.42179   0.0000000000
H          H       0.09245   0.02797   0.11665   0.0000000000
H          H       0.13141   0.95343   0.12355   0.0000000000
H          H       0.17367   0.78215   0.09080   0.0000000000
H          H       0.20985   0.70423   0.08878   0.0000000000
C          C       0.64670   0.38429   0.68281   0.0000000000
C          C       0.85325   0.43185   0.03677   0.0000000000
C          C       0.56389   0.61292   0.53896   0.0000000000
C          C       0.55491   0.61976   0.60192   0.0000000000
C          C       0.57892   0.61844   0.65055   0.0000000000
C          C       0.62532   0.61407   0.74084   0.0000000000
N          N       0.66944   0.65083   0.79440   0.0000000000
C          C       0.69377   0.65040   0.83891   0.0000000000
C          C       0.74050   0.65291   0.92997   0.0000000000
C          C       0.40559   0.59771   0.51861   0.0000000000
H          H       0.38633   0.58940   0.42740   0.0000000000
C          C       0.02457   0.27492   0.02476   0.0000000000
C          C       0.01489   0.33353   0.03576   0.0000000000
C          C       0.07870   0.30200   0.02377   0.0000000000
C          C       0.12333   0.38727   0.03140   0.0000000000
N          N       0.15113   0.46849   0.99204   0.0000000000
C          C       0.17284   0.51405   0.99281   0.0000000000
C          C       0.21621   0.60307   0.98942   0.0000000000
C          C       0.94494   0.25731   0.02035   0.0000000000
H          H       0.02908   0.37049   0.04318   0.0000000000
H          H       0.64526   0.41888   0.64944   0.0000000000
H          H       0.83943   0.43251   0.07854   0.0000000000
C          C       0.60187   0.66343   0.32488   0.0000000000
C          C       0.62417   0.66157   0.27840   0.0000000000
C          C       0.70516   0.70382   0.11453   0.0000000000
C          C       0.72793   0.70474   0.06902   0.0000000000
C          C       0.90388   0.00014   0.57721   0.0000000000
C          C       0.88176   0.04252   0.58104   0.0000000000
C          C       0.81681   0.23041   0.54637   0.0000000000
C          C       0.79601   0.27521   0.54511   0.0000000000
H          H       0.44034   0.54949   0.27881   0.0000000000
H          H       0.40155   0.54704   0.19636   0.0000000000
H          H       0.30708   0.56105   0.12038   0.0000000000
H          H       0.26828   0.56230   0.03987   0.0000000000
H          H       0.07031   0.02656   0.42987   0.0000000000
H          H       0.10933   0.10137   0.43643   0.0000000000
H          H       0.17719   0.20606   0.39040   0.0000000000
H          H       0.21319   0.28543   0.38724   0.0000000000
C          C       0.57756   0.41900   0.77893   0.0000000000
C          C       0.59966   0.42050   0.73223   0.0000000000
C          C       0.70230   0.39847   0.60628   0.0000000000
C          C       0.72513   0.39776   0.56111   0.0000000000
C          C       0.90304   0.30656   0.07718   0.0000000000
C          C       0.88086   0.34883   0.08093   0.0000000000
C          C       0.81457   0.53524   0.04850   0.0000000000
C          C       0.79348   0.57956   0.04684   0.0000000000
H          H       0.39717   0.30381   0.86048   0.0000000000
H          H       0.35781   0.30719   0.77876   0.0000000000
H          H       0.30301   0.25670   0.63437   0.0000000000
H          H       0.26375   0.25435   0.55345   0.0000000000
H          H       0.06887   0.33708   0.93258   0.0000000000
H          H       0.10787   0.41186   0.93918   0.0000000000
H          H       0.17024   0.52501   0.89329   0.0000000000
H          H       0.20682   0.60372   0.88973   0.0000000000
C          C       0.64970   0.38981   0.28787   0.0000000000
C          C       0.85349   0.87561   0.03601   0.0000000000
C          C       0.56395   0.61512   0.43742   0.0000000000
C          C       0.55488   0.62440   0.37496   0.0000000000
C          C       0.57851   0.62296   0.32557   0.0000000000
C          C       0.62325   0.61941   0.23180   0.0000000000
N          N       0.66798   0.65373   0.17831   0.0000000000
C          C       0.69189   0.65254   0.13281   0.0000000000
C          C       0.73907   0.65369   0.04271   0.0000000000
C          C       0.40556   0.59898   0.45699   0.0000000000
H          H       0.38639   0.58694   0.54778   0.0000000000
C          C       0.02457   0.03272   0.02340   0.0000000000
C          C       0.01490   0.97397   0.03340   0.0000000000
C          C       0.07870   0.00587   0.02281   0.0000000000
C          C       0.12327   0.92053   0.03049   0.0000000000
N          N       0.15247   0.84176   0.98945   0.0000000000
C          C       0.17404   0.79600   0.99054   0.0000000000
C          C       0.21693   0.70611   0.98830   0.0000000000
C          C       0.94497   0.05050   0.01943   0.0000000000
H          H       0.02911   0.93691   0.04004   0.0000000000
H          H       0.65010   0.42647   0.31861   0.0000000000
H          H       0.84108   0.87233   0.07952   0.0000000000
C          C       0.23829   0.65406   0.98750   0.0000000000
N          N       0.04638   0.15393   0.01944   0.0000000000
N          N       0.54631   0.62293   0.48839   0.0000000000
C          C       0.52454   0.62697   0.62125   0.0000000000
C          C       0.51553   0.64042   0.68141   0.0000000000
C          C       0.52452   0.63343   0.35664   0.0000000000
C          C       0.51551   0.64926   0.29717   0.0000000000
H          H       0.52986   0.65928   0.25760   0.0000000000
H          H       0.52991   0.64917   0.72128   0.0000000000
C          C       0.93546   0.79994   0.51477   0.0000000000
C          C       0.90577   0.81691   0.50624   0.0000000000
C          C       0.93549   0.89220   0.51440   0.0000000000
C          C       0.90579   0.87523   0.50606   0.0000000000
H          H       0.88605   0.78995   0.50101   0.0000000000
H          H       0.88609   0.90222   0.50069   0.0000000000
N          N       0.50000   0.62421   0.39319   0.0000000000
N          N       0.50000   0.61886   0.58468   0.0000000000
Cu         Cu      0.50000   0.37864   0.98945   0.0000000000
N          N       0.50000   0.37579   0.89319   0.0000000000
N          N       0.50000   0.38114   0.08468   0.0000000000
Cu         Cu      0.50000   0.62136   0.48945   0.0000000000
N          N       0.00000   0.75897   0.51844   0.0000000000
N          N       0.00000   0.93341   0.51757   0.0000000000
Cu         Cu      0.00000   0.15363   0.01560   0.0000000000
N          N       0.00000   0.24103   0.01844   0.0000000000
N          N       0.00000   0.06659   0.01757   0.0000000000
Cu         Cu      0.00000   0.84637   0.51560   0.0000000000
