data_PCTF-3
_audit_creation_date              0000-00-00
_audit_creation_method            'LanYouShi'
_symmetry_space_group_name_H-M    'P1'
_cell_length_a                    34.8026009
_cell_length_b                    34.8036003
_cell_length_c                    4.0692000
_cell_angle_alpha                 85.0169983
_cell_angle_beta                  85.1597977
_cell_angle_gamma                 121.4714966
loop_
_atom_site_label
_atom_site_type_symbol
_atom_site_fract_x
_atom_site_fract_y
_atom_site_fract_z
_atom_site_U_iso_or_equiv
_atom_site_adp_type
_atom_site_occupancy
        C1          C  0.7110634  0.3567787  0.5714284    0.00000       Uiso       1.00
        C2          C  0.6416975  0.3583469  0.4992851    0.00000       Uiso       1.00
        C3          C  0.6432202  0.2889882  0.4266606    0.00000       Uiso       1.00
        C4          C  0.6883608  0.3116604  0.4989890    0.00000       Uiso       1.00
        C5          C  0.6860752  0.3783259  0.5861240    0.00000       Uiso       1.00
        C6          C  0.6216860  0.3139973  0.4122265    0.00000       Uiso       1.00
        H1          H  0.7051751  0.2948415  0.4989405    0.00000       Uiso       1.00
        H2          H  0.7007506  0.4094740  0.6638668    0.00000       Uiso       1.00
        H3          H  0.5905188  0.2993579  0.3345544    0.00000       Uiso       1.00
        C1          C  0.7574339  0.3799185  0.6205617    0.00000       Uiso       1.00
        C2          C  0.6182538  0.3817914  0.4995647    0.00000       Uiso       1.00
        C3          C  0.6200482  0.2426263  0.3775089    0.00000       Uiso       1.00
        C4          C  0.2875560  0.6402928  0.5493345    0.00000       Uiso       1.00
        C5          C  0.3581530  0.6418569  0.5009632    0.00000       Uiso       1.00
        C6          C  0.3596832  0.7124542  0.4515569    0.00000       Uiso       1.00
        C7          C  0.7756219  0.3575632  0.7956907    0.00000       Uiso       1.00
        C8          C  0.3440948  0.7382714  0.2859247    0.00000       Uiso       1.00
        C9          C  0.6417170  0.4297688  0.4111371    0.00000       Uiso       1.00
       C10          C  0.2608247  0.5977861  0.4361415    0.00000       Uiso       1.00
       C11          C  0.5734573  0.2122348  0.5127777    0.00000       Uiso       1.00
       C12          C  0.4008192  0.6591681  0.2986872    0.00000       Uiso       1.00
       C13          C  0.6423666  0.2244356  0.2028046    0.00000       Uiso       1.00
       C14          C  0.2617366  0.6558494  0.7144504    0.00000       Uiso       1.00
       C15          C  0.5702966  0.3583085  0.5883432    0.00000       Uiso       1.00
       C16          C  0.4021968  0.7391999  0.5648659    0.00000       Uiso       1.00
       C17          C  0.7878253  0.4265147  0.4849218    0.00000       Uiso       1.00
       C18          C  0.3408683  0.5991723  0.7035700    0.00000       Uiso       1.00
       C19          C  0.8221972  0.3803501  0.8263825    0.00000       Uiso       1.00
       C20          C  0.3675520  0.7861442  0.2473207    0.00000       Uiso       1.00
       C21          C  0.6186414  0.4530134  0.4189945    0.00000       Uiso       1.00
       C22          C  0.2129030  0.5732648  0.4765267    0.00000       Uiso       1.00
       C23          C  0.5504653  0.1658137  0.4791898    0.00000       Uiso       1.00
       C24          C  0.4243872  0.6363942  0.2975051    0.00000       Uiso       1.00
       C25          C  0.6195588  0.1778624  0.1722664    0.00000       Uiso       1.00
       C26          C  0.2138714  0.6323708  0.7526819    0.00000       Uiso       1.00
       C27          C  0.5470509  0.3813880  0.5812138    0.00000       Uiso       1.00
       C28          C  0.4266920  0.7871284  0.5241752    0.00000       Uiso       1.00
       C29          C  0.8342493  0.4494836  0.5186352    0.00000       Uiso       1.00
       C30          C  0.3636405  0.5756012  0.7051963    0.00000       Uiso       1.00
       C31          C  0.8524755  0.4265697  0.6839115    0.00000       Uiso       1.00
       C32          C  0.5705310  0.4295169  0.5003018    0.00000       Uiso       1.00
       C33          C  0.5733494  0.1475836  0.3144487    0.00000       Uiso       1.00
       C34          C  0.1886612  0.5906211  0.6322716    0.00000       Uiso       1.00
       C35          C  0.4060291  0.5939779  0.5014462    0.00000       Uiso       1.00
       C36          C  0.4093075  0.8113663  0.3678919    0.00000       Uiso       1.00
        H1          H  0.7550691  0.3242310  0.9039096    0.00000       Uiso       1.00
        H2          H  0.3144480  0.7221863  0.1926400    0.00000       Uiso       1.00
        H3          H  0.6762413  0.4486857  0.3382180    0.00000       Uiso       1.00
        H4          H  0.2761923  0.5836390  0.3211463    0.00000       Uiso       1.00
        H5          H  0.5557479  0.2233805  0.6442374    0.00000       Uiso       1.00
        H6          H  0.4158932  0.6895019  0.1480572    0.00000       Uiso       1.00
        H7          H  0.6756899  0.2449839  0.0947927    0.00000       Uiso       1.00
        H8          H  0.2778156  0.6854876  0.8076248    0.00000       Uiso       1.00
        H9          H  0.5513962  0.3237664  0.6610121    0.00000       Uiso       1.00
       H10          H  0.4163727  0.7238392  0.6801479    0.00000       Uiso       1.00
       H11          H  0.7766731  0.4442433  0.3531497    0.00000       Uiso       1.00
       H12          H  0.3105550  0.5840855  0.8541003    0.00000       Uiso       1.00
       H13          H  0.8338534  0.3628694  0.9551453    0.00000       Uiso       1.00
       H14          H  0.3539710  0.8024343  0.1290163    0.00000       Uiso       1.00
       H15          H  0.6379458  0.4877703  0.3645872    0.00000       Uiso       1.00
       H16          H  0.1959148  0.5429832  0.3862323    0.00000       Uiso       1.00
       H17          H  0.5169052  0.1452158  0.5825757    0.00000       Uiso       1.00
       H18          H  0.4549147  0.6509025  0.1436878    0.00000       Uiso       1.00
       H19          H  0.6370179  0.1662083  0.0438312    0.00000       Uiso       1.00
       H20          H  0.1975782  0.6459305  0.8706107    0.00000       Uiso       1.00
       H21          H  0.5123055  0.3620733  0.6358590    0.00000       Uiso       1.00
       H22          H  0.4569786  0.8041246  0.6146104    0.00000       Uiso       1.00
       H23          H  0.8548502  0.4830501  0.4149811    0.00000       Uiso       1.00
       H24          H  0.3491504  0.5450558  0.8591663    0.00000       Uiso       1.00
       C37          C  0.4292910  0.5707083  0.5015596    0.00000       Uiso       1.00
       C38          C  0.4763522  0.5236598  0.5014161    0.00000       Uiso       1.00
       C39          C  0.5470504  0.4529975  0.5006506    0.00000       Uiso       1.00
       C40          C  0.4996139  0.5004134  0.5012120    0.00000       Uiso       1.00
       C41          C  0.4326902  0.8592945  0.3388684    0.00000       Uiso       1.00
       C42          C  0.4804429  0.9562202  0.3017927    0.00000       Uiso       1.00
       C43          C  0.5507963  0.1003494  0.2994768    0.00000       Uiso       1.00
       C44          C  0.5041525  0.0040511  0.2929315    0.00000       Uiso       1.00
       C45          C  0.1407398  0.5672214  0.6609320    0.00000       Uiso       1.00
       C46          C  0.0438261  0.5194519  0.6974565    0.00000       Uiso       1.00
       C47          C  0.8997062  0.4491087  0.6991414    0.00000       Uiso       1.00
       C48          C  0.9959968  0.4957412  0.7061271    0.00000       Uiso       1.00
       C49          C  0.4757501  0.5932518  0.5423703    0.00000       Uiso       1.00
       C50          C  0.4989345  0.5701026  0.5420251    0.00000       Uiso       1.00
       H25          H  0.4930539  0.6267347  0.5755591    0.00000       Uiso       1.00
       H26          H  0.5324509  0.5873964  0.5745786    0.00000       Uiso       1.00
       C51          C  0.5053719  0.4358557  0.7156565    0.00000       Uiso       1.00
       C52          C  0.4818442  0.4586624  0.7134562    0.00000       Uiso       1.00
       H27          H  0.4916426  0.4066209  0.8828802    0.00000       Uiso       1.00
       H28          H  0.4519046  0.4448659  0.8731970    0.00000       Uiso       1.00
       C53          C  0.4105186  0.8804879  0.4651636    0.00000       Uiso       1.00
       C54          C  0.4340914  0.9281189  0.4486153    0.00000       Uiso       1.00
       H29          H  0.3771147  0.8613215  0.5750155    0.00000       Uiso       1.00
       H30          H  0.4171115  0.9420653  0.5496750    0.00000       Uiso       1.00
       C55          C  0.5710344  0.0755157  0.3893797    0.00000       Uiso       1.00
       C56          C  0.5481083  0.0282285  0.3864709    0.00000       Uiso       1.00
       H31          H  0.6024653  0.0915681  0.4637600    0.00000       Uiso       1.00
       H32          H  0.5636442  0.0114587  0.4589037    0.00000       Uiso       1.00
       C57          C  0.1128643  0.5210724  0.8113027    0.00000       Uiso       1.00
       C58          C  0.0651642  0.4976281  0.8300071    0.00000       Uiso       1.00
       H33          H  0.1271261  0.5042225  0.9097503    0.00000       Uiso       1.00
       H34          H  0.0460678  0.4643535  0.9428828    0.00000       Uiso       1.00
       C59          C  0.9237539  0.4927875  0.7964880    0.00000       Uiso       1.00
       C60          C  0.9709669  0.5155442  0.8022123    0.00000       Uiso       1.00
       H35          H  0.9070209  0.5084566  0.8651732    0.00000       Uiso       1.00
       H36          H  0.9869570  0.5468505  0.8782506    0.00000       Uiso       1.00
       C61          C  0.4067386  0.5242575  0.4607721    0.00000       Uiso       1.00
       C62          C  0.4298947  0.5010797  0.4609578    0.00000       Uiso       1.00
       H37          H  0.3732458  0.5069577  0.4276524    0.00000       Uiso       1.00
       H38          H  0.4125969  0.4675726  0.4283454    0.00000       Uiso       1.00
       C63          C  0.5641285  0.4947355  0.2859716    0.00000       Uiso       1.00
       C64          C  0.5413127  0.5182521  0.2887245    0.00000       Uiso       1.00
       H39          H  0.5933188  0.5085174  0.1185646    0.00000       Uiso       1.00
       H40          H  0.5550626  0.5482353  0.1291914    0.00000       Uiso       1.00
       C65          C  0.1195334  0.5893973  0.5340444    0.00000       Uiso       1.00
       C66          C  0.0719080  0.5658165  0.5503287    0.00000       Uiso       1.00
       H41          H  0.1386857  0.6228114  0.4239703    0.00000       Uiso       1.00
       H42          H  0.0579505  0.5828009  0.4488729    0.00000       Uiso       1.00
       C67          C  0.9245204  0.4288702  0.6096714    0.00000       Uiso       1.00
       C68          C  0.9718054  0.4517917  0.6127933    0.00000       Uiso       1.00
       H43          H  0.9084548  0.3974447  0.5354464    0.00000       Uiso       1.00
       H44          H  0.9885629  0.4362594  0.5406596    0.00000       Uiso       1.00
       C69          C  0.4788231  0.8871902  0.1887423    0.00000       Uiso       1.00
       C70          C  0.5022584  0.9348952  0.1697675    0.00000       Uiso       1.00
       H45          H  0.4956685  0.8729393  0.0906845    0.00000       Uiso       1.00
       H46          H  0.5355219  0.9540050  0.0570930    0.00000       Uiso       1.00
       C71          C  0.5071079  0.0763154  0.2019683    0.00000       Uiso       1.00
       C72          C  0.4843460  0.0290997  0.1964533    0.00000       Uiso       1.00
       H47          H  0.4914355  0.0930610  0.1330050    0.00000       Uiso       1.00
       H48          H  0.4530334  0.0131215  0.1202751    0.00000       Uiso       1.00
        N1          N  0.3351573  0.6648438  0.5006264    0.00000       Uiso       1.00
