data_crystal

_cell_length_a    32.35000
_cell_length_b    18.36000
_cell_length_c    7.64000
_cell_angle_alpha 90.00000
_cell_angle_beta  90.00000
_cell_angle_gamma 122.04000

_space_group_name_Hall 'P 1'
_space_group_name_H-M_alt  'P 1'

loop_
_symmetry_equiv_pos_as_xyz
'x,y,z' 

loop_
_atom_site_label
_atom_site_type_symbol
_atom_site_fract_x
_atom_site_fract_y
_atom_site_fract_z
H          H       0.17119   0.09728   0.39049 
H          H       0.24511   0.09971   0.40510 
H          H       0.32448   0.36394   0.22376 
H          H       0.25274   0.36759   0.24799 
H          H       0.22994   0.38629   0.52351 
H          H       0.24724   0.52995   0.48306 
H          H       0.12371   0.43188   0.13255 
H          H       0.11126   0.29025   0.15352 
H          H       0.06750   0.20882   0.32050 
H          H      -0.00696   0.08844   0.41539 
H          H       0.07014  -0.01010   0.68800 
H          H       0.14633   0.11581   0.60652 
H          H       0.17178   0.58968   0.20020 
H          H       0.30262   0.10415   0.28419 
H          H       0.45774   0.35813   0.47186 
H          H       0.44829   0.11479   0.30416 
H          H       0.51711   0.10852   0.39960 
H          H       0.56455   0.32992   0.73016 
H          H       0.49552   0.33417   0.64772 
H          H       0.49688   0.04890   0.64633 
H          H       0.48271  -0.09047   0.67013 
H          H       0.63687   0.01466   0.73893 
H          H       0.65265   0.15716   0.71174 
H          H       0.66275   0.22294   0.45711 
H          H       0.74657   0.34397   0.46163 
H          H       0.70472   0.47877   0.81276 
H          H       0.62368   0.35409   0.82937 
H          H       0.35863   0.40000   0.46395 
H          H       0.80913   0.48730   0.54899 
H          H       0.52702   0.58400   0.49552 
H          H       0.55940   0.73154   0.58944 
H          H       0.41209   0.67267   0.67225 
H          H       0.37971   0.52514   0.57775 
H          H       0.32747   0.75925   0.44445 
H          H       0.36716   0.91495   0.43146 
H          H       0.23866   0.88572   0.18269 
H          H       0.19891   0.72976   0.19529 
H          H       0.88354   0.59090   0.61146 
H          H       0.96023   0.72896   0.59273 
H          H       0.88833   0.85710   0.77802 
H          H       0.81130   0.71872   0.79700 
H          H       0.38632   1.04746   0.47047 
H          H       0.58097   0.85494   0.72120 
H          H       0.94466   0.95329   0.56530 
C          C       0.16817  -2.67548  -0.15254 
C          C       0.11578  -2.82853  -0.06221 
C          C       0.20467  -2.76440  -0.15565 
C          C       0.20489  -2.84021  -0.13070 
C          C       0.24740  -2.84074  -0.13479 
C          C       0.29353  -2.76591  -0.17515 
C          C       0.29133  -2.69450  -0.23021 
C          C       0.24936  -2.69294  -0.21421 
C          C       0.20629  -2.60437  -0.06413 
C          C       0.21593  -2.52208  -0.08818 
C          C       0.18676  -2.50553  -0.19567 
C          C       0.14730  -2.57682  -0.27762 
C          C       0.13891  -2.65911  -0.26107 
C          C       0.07063  -2.83747  -0.09982 
C          C       0.02663  -2.90801  -0.04375 
C          C       0.02411  -2.97478   0.05328 
C          C       0.06893  -2.96296   0.10305 
C          C       0.11307  -2.89152   0.05070 
C          C       0.19772  -2.41914  -0.22391 
C          C       0.33848  -2.76281  -0.15107 
C          C       0.33725  -2.84032  -0.16981 
C          C       0.37401  -2.85207  -0.11872 
C          C       0.41982  -2.77710  -0.07068 
C          C       0.42233  -2.69809  -0.06542 
C          C       0.38351  -2.68840  -0.09234 
C          C       0.46283  -2.77778  -0.02655 
C          C       0.47233  -2.83914  -0.09580 
C          C       0.51222  -2.84187  -0.04406 
C          C       0.54686  -2.78415   0.07688 
C          C       0.54032  -2.71805   0.13401 
C          C       0.49981  -2.71562   0.08650 
C          C       0.63500  -2.72189   0.13775 
C          C       0.57703  -2.88089   0.15956 
C          C       0.52957  -2.95490   0.15748 
C          C       0.52088  -3.03682   0.17715 
C          C       0.55860  -3.05182   0.20135 
C          C       0.60556  -2.97864   0.21488 
C          C       0.61462  -2.89600   0.19611 
C          C       0.67198  -2.72140   0.03990 
C          C       0.71976  -2.65173   0.04197 
C          C       0.73345  -2.57662   0.13543 
C          C       0.69648  -2.57691   0.23189 
C          C       0.64893  -2.64756   0.23582 
C          C       0.39072  -2.60479  -0.05403 
C          C       0.78349  -2.50476   0.12901 
C          C       0.26009  -2.26782  -0.17791 
C          C       0.45102  -2.45683   0.02756 
C          C       0.84079  -2.35633   0.20348 
C          C       0.50140  -2.39694   0.03517 
C          C       0.51972  -2.31346   0.08979 
C          C       0.48819  -2.28634   0.14017 
C          C       0.43777  -2.34657   0.13473 
C          C       0.41943  -2.43012   0.08002 
C          C       0.30762  -2.21336  -0.11425 
C          C       0.33011  -2.12502  -0.12164 
C          C       0.30571  -2.08745  -0.19320 
C          C       0.25851  -2.14190  -0.25960 
C          C       0.23601  -2.23026  -0.25214 
C          C       0.88388  -2.35111   0.14951 
C          C       0.92759  -2.27277   0.13957 
C          C       0.93038  -2.19589   0.18160 
C          C       0.88770  -2.20132   0.24116 
C          C       0.84407  -2.27972   0.25231 
C          C       0.36375  -1.93923  -0.11497 
C          C       0.54935  -2.13792   0.21198 
C          C       0.97704  -2.04902   0.09883 
N          N       0.16189  -2.75852  -0.12956 
N          N       0.58594  -2.79524   0.13275 
N          N       0.23881  -2.35659  -0.16425 
N          N       0.43469  -2.54003  -0.03044 
N          N       0.79528  -2.43388   0.20823 
N          N       0.32607  -1.99876  -0.19858 
N          N       0.50504  -2.20138   0.18693 
N          N       0.97454  -2.11716   0.15945 
H          H       0.17119   0.09728   0.89049 
H          H       0.24511   0.09971   0.90511 
H          H       0.32448   0.36394   0.72376 
H          H       0.25274   0.36759   0.74799 
H          H       0.22994   0.38629   1.02351 
H          H       0.24724   0.52995   0.98306 
H          H       0.12371   0.43188   0.63255 
H          H       0.11126   0.29025   0.65352 
H          H       0.06750   0.20882   0.82050 
H          H      -0.00696   0.08844   0.91539 
H          H       0.07014  -0.01010   1.18800 
H          H       0.14633   0.11581   1.10652 
H          H       0.17178   0.58968   0.70020 
H          H       0.30262   0.10415   0.78419 
H          H       0.45774   0.35813   0.97186 
H          H       0.44829   0.11479   0.80416 
H          H       0.51711   0.10852   0.89960 
H          H       0.56455   0.32992   1.23016 
H          H       0.49552   0.33417   1.14772 
H          H       0.49688   0.04890   1.14633 
H          H       0.48271  -0.09047   1.17013 
H          H       0.63687   0.01466   1.23893 
H          H       0.65265   0.15716   1.21173 
H          H       0.66275   0.22294   0.95711 
H          H       0.74657   0.34397   0.96163 
H          H       0.70472   0.47877   1.31276 
H          H       0.62368   0.35409   1.32937 
H          H       0.35863   0.40000   0.96395 
H          H       0.80913   0.48730   1.04899 
H          H       0.52702   0.58400   0.99552 
H          H       0.55940   0.73154   1.08944 
H          H       0.41209   0.67267   1.17225 
H          H       0.37971   0.52514   1.07775 
H          H       0.32747   0.75925   0.94445 
H          H       0.36716   0.91495   0.93146 
H          H       0.23866   0.88572   0.68269 
H          H       0.19891   0.72976   0.69529 
H          H       0.88354   0.59090   1.11146 
H          H       0.96023   0.72896   1.09273 
H          H       0.88833   0.85710   1.27802 
H          H       0.81130   0.71872   1.29700 
H          H       0.38632   1.04746   0.97047 
H          H       0.58097   0.85494   1.22120 
H          H       0.94466   0.95329   1.06530 
C          C       0.16817  -2.67548   0.34746 
C          C       0.11578  -2.82853   0.43779 
C          C       0.20467  -2.76440   0.34435 
C          C       0.20489  -2.84021   0.36930 
C          C       0.24740  -2.84074   0.36521 
C          C       0.29353  -2.76591   0.32485 
C          C       0.29133  -2.69450   0.26979 
C          C       0.24936  -2.69294   0.28579 
C          C       0.20629  -2.60437   0.43588 
C          C       0.21593  -2.52208   0.41182 
C          C       0.18676  -2.50553   0.30433 
C          C       0.14730  -2.57682   0.22238 
C          C       0.13891  -2.65911   0.23893 
C          C       0.07063  -2.83747   0.40018 
C          C       0.02663  -2.90801   0.45624 
C          C       0.02411  -2.97478   0.55327 
C          C       0.06893  -2.96296   0.60305 
C          C       0.11307  -2.89152   0.55071 
C          C       0.19772  -2.41914   0.27608 
C          C       0.33848  -2.76281   0.34893 
C          C       0.33725  -2.84032   0.33019 
C          C       0.37401  -2.85207   0.38127 
C          C       0.41982  -2.77710   0.42933 
C          C       0.42233  -2.69809   0.43458 
C          C       0.38351  -2.68840   0.40765 
C          C       0.46283  -2.77778   0.47345 
C          C       0.47233  -2.83914   0.40420 
C          C       0.51222  -2.84187   0.45594 
C          C       0.54686  -2.78415   0.57688 
C          C       0.54032  -2.71805   0.63401 
C          C       0.49981  -2.71562   0.58650 
C          C       0.63500  -2.72189   0.63775 
C          C       0.57703  -2.88089   0.65956 
C          C       0.52957  -2.95490   0.65747 
C          C       0.52088  -3.03682   0.67715 
C          C       0.55860  -3.05182   0.70135 
C          C       0.60556  -2.97864   0.71488 
C          C       0.61462  -2.89600   0.69610 
C          C       0.67198  -2.72140   0.53990 
C          C       0.71976  -2.65173   0.54197 
C          C       0.73345  -2.57662   0.63543 
C          C       0.69648  -2.57691   0.73189 
C          C       0.64893  -2.64756   0.73582 
C          C       0.39072  -2.60479   0.44597 
C          C       0.78349  -2.50476   0.62901 
C          C       0.26009  -2.26782   0.32209 
C          C       0.45102  -2.45683   0.52756 
C          C       0.84079  -2.35633   0.70348 
C          C       0.50140  -2.39694   0.53517 
C          C       0.51972  -2.31346   0.58979 
C          C       0.48819  -2.28634   0.64017 
C          C       0.43777  -2.34657   0.63473 
C          C       0.41943  -2.43012   0.58002 
C          C       0.30762  -2.21336   0.38575 
C          C       0.33011  -2.12502   0.37836 
C          C       0.30571  -2.08745   0.30680 
C          C       0.25851  -2.14190   0.24040 
C          C       0.23601  -2.23026   0.24786 
C          C       0.88388  -2.35111   0.64951 
C          C       0.92759  -2.27277   0.63958 
C          C       0.93038  -2.19589   0.68161 
C          C       0.88770  -2.20132   0.74116 
C          C       0.84407  -2.27972   0.75230 
C          C       0.36375  -1.93923   0.38502 
C          C       0.54935  -2.13792   0.71198 
C          C       0.97704  -2.04902   0.59884 
N          N       0.16189  -2.75852   0.37044 
N          N       0.58594  -2.79524   0.63275 
N          N       0.23881  -2.35659   0.33575 
N          N       0.43469  -2.54003   0.46956 
N          N       0.79528  -2.43388   0.70823 
N          N       0.32607  -1.99876   0.30142 
N          N       0.50504  -2.20138   0.68693 
N          N       0.97454  -2.11716   0.65945 
