data_Ph-An-COF
_audit_creation_date              0000-00-00
_audit_creation_method            'LanYouShi'
_symmetry_space_group_name_H-M    'P1'
_cell_length_a                    29.1443996
_cell_length_b                    29.1443996
_cell_length_c                    3.4000001
_cell_angle_alpha                 90.0000000
_cell_angle_beta                  90.0000000
_cell_angle_gamma                 120.0000000
loop_
_atom_site_label
_atom_site_type_symbol
_atom_site_fract_x
_atom_site_fract_y
_atom_site_fract_z
_atom_site_U_iso_or_equiv
_atom_site_adp_type
_atom_site_occupancy
        C1          C  0.4081330  0.4073256  1.4705954    0.00000       Uiso       1.00
        C2          C  0.4540668  0.4531659  1.4705913    0.00000       Uiso       1.00
        C3          C  0.5918683  0.4991933  1.4705951    0.00000       Uiso       1.00
        C4          C  0.5459344  0.4990998  1.4705912    0.00000       Uiso       1.00
        H1          H  0.4063795  0.3693236  1.4705437    0.00000       Uiso       1.00
        H2          H  0.5936288  0.4629499  1.4705427    0.00000       Uiso       1.00
        O1          O  0.6860326  0.5522424  1.4705939    0.00000       Uiso       1.00
        C5          C  0.3633475  0.4088008  1.4705912    0.00000       Uiso       1.00
        O2          O  0.3139687  0.3662104  1.4705944    0.00000       Uiso       1.00
        C6          C  0.6366538  0.5454540  1.4705908    0.00000       Uiso       1.00
        C7          C  0.5000007  0.4532594  1.4705952    0.00000       Uiso       1.00
        H3          H  0.4999870  0.4159402  1.4704984    0.00000       Uiso       1.00
        O3          O  0.3139687  0.4477591  1.4705802    0.00000       Uiso       1.00
        C8          C  0.6366538  0.5912008  1.4705828    0.00000       Uiso       1.00
        O4          O  0.6860327  0.6337911  1.4705796    0.00000       Uiso       1.00
        C9          C  0.3633475  0.4545476  1.4705833    0.00000       Uiso       1.00
        B1          B  0.2841117  0.3920563  1.4705874    0.00000       Uiso       1.00
       C10          C  0.5000007  0.5467421  1.4705789    0.00000       Uiso       1.00
        H4          H  0.4999878  0.5840327  1.4708139    0.00000       Uiso       1.00
       C11          C  0.5918683  0.5926759  1.4705788    0.00000       Uiso       1.00
       C12          C  0.5459344  0.5468356  1.4705828    0.00000       Uiso       1.00
       C13          C  0.4081330  0.5008083  1.4705790    0.00000       Uiso       1.00
       C14          C  0.4540668  0.5009018  1.4705830    0.00000       Uiso       1.00
        B2          B  0.7158896  0.6079453  1.4705868    0.00000       Uiso       1.00
        H5          H  0.5936199  0.6306877  1.4707448    0.00000       Uiso       1.00
        H6          H  0.4063843  0.5370519  1.4706776    0.00000       Uiso       1.00
       C15          C  0.9991945  0.0918678  1.4705266    0.00000       Uiso       1.00
       C16          C  0.9991010  0.0459340  1.4705348    0.00000       Uiso       1.00
       C17          C  0.9073263  0.9081339  1.4705509    0.00000       Uiso       1.00
       C18          C  0.9531667  0.9540678  1.4705468    0.00000       Uiso       1.00
        H7          H  0.9629459  0.0936214  1.4704652    0.00000       Uiso       1.00
        H8          H  0.8693225  0.9063735  1.4704889    0.00000       Uiso       1.00
        O5          O  0.8662111  0.8139697  1.4705638    0.00000       Uiso       1.00
       C19          C  0.0454535  0.1366533  1.4705229    0.00000       Uiso       1.00
        O6          O  0.0522419  0.1860322  1.4705149    0.00000       Uiso       1.00
       C20          C  0.9088015  0.8633485  1.4705588    0.00000       Uiso       1.00
       C21          C  0.9532607  0.0000002  1.4705389    0.00000       Uiso       1.00
        H9          H  0.9159550  0.0000139  1.4704324    0.00000       Uiso       1.00
        O7          O  0.1337907  0.1860322  1.4705218    0.00000       Uiso       1.00
       C22          C  0.9545484  0.8633485  1.4705627    0.00000       Uiso       1.00
        O8          O  0.9477599  0.8139697  1.4705707    0.00000       Uiso       1.00
       C23          C  0.0912003  0.1366533  1.4705268    0.00000       Uiso       1.00
        B3          B  0.1079448  0.2158892  1.4705144    0.00000       Uiso       1.00
       C24          C  0.0467416  0.0000002  1.4705468    0.00000       Uiso       1.00
       H10          H  0.0840451  0.0000130  1.4707915    0.00000       Uiso       1.00
       C25          C  0.0008073  0.9081339  1.4705589    0.00000       Uiso       1.00
       C26          C  0.0009008  0.9540678  1.4705509    0.00000       Uiso       1.00
       C27          C  0.0926755  0.0918678  1.4705348    0.00000       Uiso       1.00
       C28          C  0.0468351  0.0459340  1.4705389    0.00000       Uiso       1.00
        B4          B  0.8920570  0.7841127  1.4705710    0.00000       Uiso       1.00
       H11          H  0.0370675  0.9063824  1.4707348    0.00000       Uiso       1.00
       H12          H  0.1306677  0.0936165  1.4706429    0.00000       Uiso       1.00
       C29          C  0.0926750  0.5008083  1.4706377    0.00000       Uiso       1.00
       C30          C  0.0468346  0.5009018  1.4706337    0.00000       Uiso       1.00
       C31          C  0.0008073  0.5926759  1.4706138    0.00000       Uiso       1.00
       C32          C  0.0009008  0.5468356  1.4706218    0.00000       Uiso       1.00
       H13          H  0.1306770  0.5370568  1.4705765    0.00000       Uiso       1.00
       H14          H  0.0370507  0.6306798  1.4705513    0.00000       Uiso       1.00
        O9          O  0.9477599  0.6337911  1.4706020    0.00000       Uiso       1.00
       C33          C  0.0911998  0.4545476  1.4706457    0.00000       Uiso       1.00
       O10          O  0.1337902  0.4477591  1.4706506    0.00000       Uiso       1.00
       C34          C  0.9545483  0.5912008  1.4706103    0.00000       Uiso       1.00
       C35          C  0.0467411  0.5467421  1.4706258    0.00000       Uiso       1.00
       H15          H  0.0840604  0.5840477  1.4705193    0.00000       Uiso       1.00
       O11          O  0.0522414  0.3662104  1.4706577    0.00000       Uiso       1.00
       C36          C  0.9088015  0.5454540  1.4706142    0.00000       Uiso       1.00
       O12          O  0.8662111  0.5522424  1.4706094    0.00000       Uiso       1.00
       C37          C  0.0454530  0.4088008  1.4706497    0.00000       Uiso       1.00
        B5          B  0.1079443  0.3920563  1.4706581    0.00000       Uiso       1.00
       C38          C  0.9532602  0.4532594  1.4706341    0.00000       Uiso       1.00
       H16          H  0.9159695  0.4159560  1.4708788    0.00000       Uiso       1.00
       C39          C  0.9073263  0.4991933  1.4706222    0.00000       Uiso       1.00
       C40          C  0.9531667  0.4990998  1.4706261    0.00000       Uiso       1.00
       C41          C  0.9991940  0.4073256  1.4706460    0.00000       Uiso       1.00
       C42          C  0.9991005  0.4531659  1.4706380    0.00000       Uiso       1.00
        B6          B  0.8920570  0.6079453  1.4706018    0.00000       Uiso       1.00
       H17          H  0.8693146  0.4629331  1.4707979    0.00000       Uiso       1.00
       H18          H  0.9629504  0.3693334  1.4707546    0.00000       Uiso       1.00
       C43          C  0.7777362  0.6388686  1.4705867    0.00000       Uiso       1.00
       C44          C  0.8611337  0.6388686  1.4705938    0.00000       Uiso       1.00
       C45          C  0.8611337  0.7222661  1.4705793    0.00000       Uiso       1.00
       C46          C  0.8056043  0.6112074  1.4705939    0.00000       Uiso       1.00
       C47          C  0.8887948  0.6943979  1.4705865    0.00000       Uiso       1.00
       C48          C  0.8056043  0.6943979  1.4705794    0.00000       Uiso       1.00
       H19          H  0.7841207  0.7158816  1.4705738    0.00000       Uiso       1.00
       H20          H  0.7841207  0.5682400  1.4705995    0.00000       Uiso       1.00
       H21          H  0.9317623  0.7158816  1.4705865    0.00000       Uiso       1.00
       C49          C  0.2222651  0.3611330  1.4705874    0.00000       Uiso       1.00
       C50          C  0.1388676  0.2777354  1.4705948    0.00000       Uiso       1.00
       C51          C  0.1388676  0.3611330  1.4705802    0.00000       Uiso       1.00
       C52          C  0.1943969  0.3056037  1.4705946    0.00000       Uiso       1.00
       C53          C  0.1112064  0.3056037  1.4705875    0.00000       Uiso       1.00
       C54          C  0.1943969  0.3887942  1.4705802    0.00000       Uiso       1.00
       H22          H  0.2158806  0.4317616  1.4705746    0.00000       Uiso       1.00
       H23          H  0.2158806  0.2841200  1.4706002    0.00000       Uiso       1.00
       H24          H  0.0682390  0.2841200  1.4705876    0.00000       Uiso       1.00
