data_PI-2-COF
_audit_creation_date              0000-00-00
_audit_creation_method            'LanYouShi'
_symmetry_space_group_name_H-M    'P1'
_cell_length_a                    30.1401997
_cell_length_b                    30.1401997
_cell_length_c                    3.4000001
_cell_angle_alpha                 90.0000000
_cell_angle_beta                  90.0000000
_cell_angle_gamma                 60.0000000
loop_
_atom_site_label
_atom_site_type_symbol
_atom_site_fract_x
_atom_site_fract_y
_atom_site_fract_z
_atom_site_U_iso_or_equiv
_atom_site_adp_type
_atom_site_occupancy
        N1          N  0.3837547  0.4318057  1.4705882    0.00000       Uiso       1.00
        C1          C  0.3977908  0.3820783  1.4705882    0.00000       Uiso       1.00
        C2          C  0.4169830  0.4502326  1.4705882    0.00000       Uiso       1.00
        C3          C  0.4695796  0.4178102  1.4705882    0.00000       Uiso       1.00
        C4          C  0.5012899  0.4377359  1.4705882    0.00000       Uiso       1.00
        C5          C  0.4824102  0.4902673  1.4705882    0.00000       Uiso       1.00
        C6          C  0.4293902  0.5222369  1.4705882    0.00000       Uiso       1.00
        C7          C  0.3970975  0.5026251  1.4705882    0.00000       Uiso       1.00
        H1          H  0.4380401  0.3521744  1.4705882    0.00000       Uiso       1.00
        H2          H  0.4860388  0.3761150  1.4705882    0.00000       Uiso       1.00
        H3          H  0.3551035  0.5278761  1.4705882    0.00000       Uiso       1.00
        H4          H  0.5428053  0.4109919  1.4705882    0.00000       Uiso       1.00
        H5          H  0.4126322  0.5639472  1.4705882    0.00000       Uiso       1.00
        N2          N  0.6162463  0.5681953  1.4705882    0.00000       Uiso       1.00
        C8          C  0.6022102  0.6179227  1.4705882    0.00000       Uiso       1.00
        C9          C  0.5830180  0.5497684  1.4705882    0.00000       Uiso       1.00
       C10          C  0.5304214  0.5821908  1.4705882    0.00000       Uiso       1.00
       C11          C  0.4987111  0.5622651  1.4705882    0.00000       Uiso       1.00
       C12          C  0.5175908  0.5097337  1.4705882    0.00000       Uiso       1.00
       C13          C  0.5706108  0.4777640  1.4705882    0.00000       Uiso       1.00
       C14          C  0.6029035  0.4973759  1.4705882    0.00000       Uiso       1.00
        H6          H  0.5619608  0.6478267  1.4705882    0.00000       Uiso       1.00
        H7          H  0.5139622  0.6238859  1.4705882    0.00000       Uiso       1.00
        H8          H  0.6448975  0.4721249  1.4705882    0.00000       Uiso       1.00
        H9          H  0.4571957  0.5890091  1.4705882    0.00000       Uiso       1.00
       H10          H  0.5873688  0.4360538  1.4705882    0.00000       Uiso       1.00
        N3          N  0.1844407  0.3837547  1.4705882    0.00000       Uiso       1.00
       C15          C  0.2201319  0.3977908  1.4705882    0.00000       Uiso       1.00
       C16          C  0.1327854  0.4169830  1.4705882    0.00000       Uiso       1.00
       C17          C  0.1126112  0.4695796  1.4705882    0.00000       Uiso       1.00
       C18          C  0.0609752  0.5012899  1.4705882    0.00000       Uiso       1.00
       C19          C  0.0273235  0.4824102  1.4705882    0.00000       Uiso       1.00
       C20          C  0.0483739  0.4293902  1.4705882    0.00000       Uiso       1.00
       C21          C  0.1002785  0.3970974  1.4705882    0.00000       Uiso       1.00
       H11          H  0.2097865  0.4380401  1.4705882    0.00000       Uiso       1.00
       H12          H  0.1378471  0.4860388  1.4705882    0.00000       Uiso       1.00
       H13          H  0.1170214  0.3551035  1.4705882    0.00000       Uiso       1.00
       H14          H  0.0462038  0.5428053  1.4705882    0.00000       Uiso       1.00
       H15          H  0.0234216  0.4126322  1.4705882    0.00000       Uiso       1.00
        N4          N  0.8155604  0.6162463  1.4705882    0.00000       Uiso       1.00
       C22          C  0.7798691  0.6022102  1.4705882    0.00000       Uiso       1.00
       C23          C  0.8672156  0.5830180  1.4705882    0.00000       Uiso       1.00
       C24          C  0.8873898  0.5304214  1.4705882    0.00000       Uiso       1.00
       C25          C  0.9390258  0.4987111  1.4705882    0.00000       Uiso       1.00
       C26          C  0.9726775  0.5175908  1.4705882    0.00000       Uiso       1.00
       C27          C  0.9516271  0.5706108  1.4705882    0.00000       Uiso       1.00
       C28          C  0.8997225  0.6029035  1.4705882    0.00000       Uiso       1.00
       H16          H  0.7902145  0.5619609  1.4705882    0.00000       Uiso       1.00
       H17          H  0.8621538  0.5139621  1.4705882    0.00000       Uiso       1.00
       H18          H  0.8829796  0.6448975  1.4705882    0.00000       Uiso       1.00
       H19          H  0.9537972  0.4571958  1.4705882    0.00000       Uiso       1.00
       H20          H  0.9765795  0.5873688  1.4705882    0.00000       Uiso       1.00
        N5          N  0.4318057  0.1844407  1.4705882    0.00000       Uiso       1.00
       C29          C  0.3820783  0.2201319  1.4705882    0.00000       Uiso       1.00
       C30          C  0.4502326  0.1327854  1.4705882    0.00000       Uiso       1.00
       C31          C  0.4178102  0.1126112  1.4705882    0.00000       Uiso       1.00
       C32          C  0.4377359  0.0609752  1.4705882    0.00000       Uiso       1.00
       C33          C  0.4902673  0.0273235  1.4705882    0.00000       Uiso       1.00
       C34          C  0.5222370  0.0483739  1.4705882    0.00000       Uiso       1.00
       C35          C  0.5026251  0.1002785  1.4705882    0.00000       Uiso       1.00
       H21          H  0.3521744  0.2097865  1.4705882    0.00000       Uiso       1.00
       H22          H  0.3761150  0.1378471  1.4705882    0.00000       Uiso       1.00
       H23          H  0.5278761  0.1170214  1.4705882    0.00000       Uiso       1.00
       H24          H  0.4109919  0.0462038  1.4705882    0.00000       Uiso       1.00
       H25          H  0.5639472  0.0234216  1.4705882    0.00000       Uiso       1.00
        N6          N  0.5681953  0.8155603  1.4705882    0.00000       Uiso       1.00
       C36          C  0.6179227  0.7798691  1.4705882    0.00000       Uiso       1.00
       C37          C  0.5497684  0.8672156  1.4705882    0.00000       Uiso       1.00
       C38          C  0.5821908  0.8873898  1.4705882    0.00000       Uiso       1.00
       C39          C  0.5622652  0.9390258  1.4705882    0.00000       Uiso       1.00
       C40          C  0.5097337  0.9726775  1.4705882    0.00000       Uiso       1.00
       C41          C  0.4777641  0.9516271  1.4705882    0.00000       Uiso       1.00
       C42          C  0.4973759  0.8997225  1.4705882    0.00000       Uiso       1.00
       H26          H  0.6478266  0.7902145  1.4705882    0.00000       Uiso       1.00
       H27          H  0.6238860  0.8621538  1.4705882    0.00000       Uiso       1.00
       H28          H  0.4721249  0.8829796  1.4705882    0.00000       Uiso       1.00
       H29          H  0.5890091  0.9537971  1.4705882    0.00000       Uiso       1.00
       H30          H  0.4360538  0.9765794  1.4705882    0.00000       Uiso       1.00
       C43          C  0.6361534  0.6435916  1.4705882    0.00000       Uiso       1.00
       C44          C  0.6435916  0.7202570  1.4705882    0.00000       Uiso       1.00
       C45          C  0.7202570  0.6361533  1.4705882    0.00000       Uiso       1.00
       C46          C  0.6132107  0.6971055  1.4705882    0.00000       Uiso       1.00
       C47          C  0.6971055  0.6896858  1.4705882    0.00000       Uiso       1.00
       C48          C  0.6896858  0.6132107  1.4705882    0.00000       Uiso       1.00
       H31          H  0.7075191  0.5717957  1.4705882    0.00000       Uiso       1.00
       H32          H  0.5717957  0.7206873  1.4705882    0.00000       Uiso       1.00
       H33          H  0.7206873  0.7075191  1.4705882    0.00000       Uiso       1.00
       C49          C  0.3638476  0.3564094  1.4705882    0.00000       Uiso       1.00
       C50          C  0.3564094  0.2797440  1.4705882    0.00000       Uiso       1.00
       C51          C  0.2797440  0.3638476  1.4705882    0.00000       Uiso       1.00
       C52          C  0.3867903  0.3028955  1.4705882    0.00000       Uiso       1.00
       C53          C  0.3028955  0.3103153  1.4705882    0.00000       Uiso       1.00
       C54          C  0.3103153  0.3867902  1.4705882    0.00000       Uiso       1.00
       H34          H  0.2924820  0.4282053  1.4705882    0.00000       Uiso       1.00
       H35          H  0.4282053  0.2793137  1.4705882    0.00000       Uiso       1.00
       H36          H  0.2793137  0.2924820  1.4705882    0.00000       Uiso       1.00
