data_PI-3_COF
_audit_creation_date              0000-00-00
_audit_creation_method            'LanYouShi'
_symmetry_space_group_name_H-M    'P1'
_cell_length_a                    37.2378998
_cell_length_b                    37.2378998
_cell_length_c                    3.5263000
_cell_angle_alpha                 90.0000000
_cell_angle_beta                  90.0000000
_cell_angle_gamma                 120.0000000
loop_
_atom_site_label
_atom_site_type_symbol
_atom_site_fract_x
_atom_site_fract_y
_atom_site_fract_z
_atom_site_U_iso_or_equiv
_atom_site_adp_type
_atom_site_occupancy
        C1          N  0.8840108  0.4482391  0.4999980    0.00000       Uiso       1.00
        C1          N  0.5517607  0.4357717  0.4999980    0.00000       Uiso       1.00
        C1          N  0.5642281  0.1159890  0.4999980    0.00000       Uiso       1.00
        C1          N  0.1159890  0.5517607  0.4999980    0.00000       Uiso       1.00
        C1          N  0.4482391  0.5642281  0.4999980    0.00000       Uiso       1.00
        C1          N  0.4357717  0.8840108  0.4999980    0.00000       Uiso       1.00
        N1          C  0.9145428  0.4385623  0.4999980    0.00000       Uiso       1.00
         H          H  0.9068995  0.4081054  0.4999980    0.00000       Uiso       1.00
        N1          C  0.5614374  0.4759805  0.4999980    0.00000       Uiso       1.00
         H          H  0.5918943  0.4987941  0.4999980    0.00000       Uiso       1.00
        N1          C  0.5240193  0.0854570  0.4999980    0.00000       Uiso       1.00
         H          H  0.5012057  0.0931002  0.4999980    0.00000       Uiso       1.00
        N1          C  0.0854570  0.5614374  0.4999980    0.00000       Uiso       1.00
         H          H  0.0931002  0.5918943  0.4999980    0.00000       Uiso       1.00
        N1          C  0.4385623  0.5240192  0.4999980    0.00000       Uiso       1.00
         H          H  0.4081054  0.5012056  0.4999980    0.00000       Uiso       1.00
        N1          C  0.4759805  0.9145428  0.4999980    0.00000       Uiso       1.00
         H          H  0.4987941  0.9068995  0.4999980    0.00000       Uiso       1.00
        C1          C  0.9568308  0.4693186  0.4999980    0.00000       Uiso       1.00
        C2          C  0.5306811  0.4875122  0.4999980    0.00000       Uiso       1.00
        C3          C  0.5124875  0.0431689  0.4999980    0.00000       Uiso       1.00
        C4          C  0.0431689  0.5306811  0.4999980    0.00000       Uiso       1.00
        C5          C  0.4693186  0.5124875  0.4999980    0.00000       Uiso       1.00
        C6          C  0.4875122  0.9568308  0.4999980    0.00000       Uiso       1.00
        C7          C  0.9876614  0.4577127  0.4999980    0.00000       Uiso       1.00
        C8          C  0.5422871  0.5299487  0.4999980    0.00000       Uiso       1.00
        C9          C  0.4700511  0.0123384  0.4999980    0.00000       Uiso       1.00
       C10          C  0.0123384  0.5422871  0.4999980    0.00000       Uiso       1.00
       C11          C  0.4577127  0.4700511  0.4999980    0.00000       Uiso       1.00
       C12          C  0.5299486  0.9876613  0.4999980    0.00000       Uiso       1.00
       C13          C  0.0300650  0.4878629  0.4999980    0.00000       Uiso       1.00
       C14          C  0.5121368  0.5422018  0.4999980    0.00000       Uiso       1.00
       C15          C  0.4577979  0.9699348  0.4999980    0.00000       Uiso       1.00
       C16          C  0.9699348  0.5121369  0.4999980    0.00000       Uiso       1.00
       C17          C  0.4878629  0.4577979  0.4999980    0.00000       Uiso       1.00
       C18          C  0.5422018  0.0300650  0.4999980    0.00000       Uiso       1.00
        H1          H  0.9795533  0.4270831  0.4999980    0.00000       Uiso       1.00
        H2          H  0.5729167  0.5524702  0.4999980    0.00000       Uiso       1.00
        H3          H  0.4475296  0.0204465  0.4999980    0.00000       Uiso       1.00
        H4          H  0.0204465  0.5729167  0.4999980    0.00000       Uiso       1.00
        H5          H  0.4270831  0.4475296  0.4999980    0.00000       Uiso       1.00
        H6          H  0.5524702  0.9795532  0.4999980    0.00000       Uiso       1.00
        H7          H  0.0514092  0.4782094  0.4999980    0.00000       Uiso       1.00
        H8          H  0.5217903  0.5731995  0.4999980    0.00000       Uiso       1.00
        H9          H  0.4268003  0.9485906  0.4999980    0.00000       Uiso       1.00
       H10          H  0.9485906  0.5217903  0.4999980    0.00000       Uiso       1.00
       H11          H  0.4782094  0.4268003  0.4999980    0.00000       Uiso       1.00
       H12          H  0.5731995  0.0514092  0.4999980    0.00000       Uiso       1.00
       C25          C  0.1794733  0.6198469  0.4999980    0.00000       Uiso       1.00
       C26          C  0.2231278  0.6423399  0.4999980    0.00000       Uiso       1.00
       C25          C  0.3801529  0.5596262  0.4999980    0.00000       Uiso       1.00
       C26          C  0.3576599  0.5807877  0.4999980    0.00000       Uiso       1.00
       C25          C  0.4403736  0.8205265  0.4999980    0.00000       Uiso       1.00
       C26          C  0.4192121  0.7768720  0.4999980    0.00000       Uiso       1.00
       C25          C  0.8205265  0.3801529  0.4999980    0.00000       Uiso       1.00
       C26          C  0.7768720  0.3576599  0.4999980    0.00000       Uiso       1.00
       C25          C  0.6198469  0.4403736  0.4999980    0.00000       Uiso       1.00
       C26          C  0.6423399  0.4192120  0.4999980    0.00000       Uiso       1.00
       C25          C  0.5596262  0.1794733  0.4999980    0.00000       Uiso       1.00
       C26          C  0.5807877  0.2231278  0.4999980    0.00000       Uiso       1.00
       H19          H  0.1638151  0.6358023  0.4999980    0.00000       Uiso       1.00
       H20          H  0.2375858  0.6740323  0.4999980    0.00000       Uiso       1.00
       H19          H  0.3641975  0.5280125  0.4999980    0.00000       Uiso       1.00
       H20          H  0.3259674  0.5635532  0.4999980    0.00000       Uiso       1.00
       H19          H  0.4719872  0.8361847  0.4999980    0.00000       Uiso       1.00
       H20          H  0.4364465  0.7624140  0.4999980    0.00000       Uiso       1.00
       H19          H  0.8361847  0.3641975  0.4999980    0.00000       Uiso       1.00
       H20          H  0.7624139  0.3259674  0.4999980    0.00000       Uiso       1.00
       H19          H  0.6358023  0.4719872  0.4999980    0.00000       Uiso       1.00
       H20          H  0.6740324  0.4364465  0.4999980    0.00000       Uiso       1.00
       H19          H  0.5280125  0.1638151  0.4999980    0.00000       Uiso       1.00
       H20          H  0.5635532  0.2375858  0.4999980    0.00000       Uiso       1.00
       C31          C  0.3746344  0.8191299  0.4999980    0.00000       Uiso       1.00
       C32          C  0.3534632  0.7754841  0.4999980    0.00000       Uiso       1.00
       C31          C  0.1808698  0.5555042  0.4999980    0.00000       Uiso       1.00
       C32          C  0.2245157  0.5779788  0.4999980    0.00000       Uiso       1.00
       C31          C  0.4444955  0.6253654  0.4999980    0.00000       Uiso       1.00
       C32          C  0.4220209  0.6465365  0.4999980    0.00000       Uiso       1.00
       C31          C  0.6253654  0.1808698  0.4999980    0.00000       Uiso       1.00
       C32          C  0.6465366  0.2245157  0.4999980    0.00000       Uiso       1.00
       C31          C  0.8191299  0.4444956  0.4999980    0.00000       Uiso       1.00
       C32          C  0.7754841  0.4220209  0.4999980    0.00000       Uiso       1.00
       C31          C  0.5555042  0.3746344  0.4999980    0.00000       Uiso       1.00
       C32          C  0.5779788  0.3534632  0.4999980    0.00000       Uiso       1.00
       H25          H  0.3579847  0.8341862  0.4999980    0.00000       Uiso       1.00
       H26          H  0.3217372  0.7600390  0.4999980    0.00000       Uiso       1.00
       H25          H  0.1658136  0.5237982  0.4999980    0.00000       Uiso       1.00
       H26          H  0.2399608  0.5616980  0.4999980    0.00000       Uiso       1.00
       H25          H  0.4762015  0.6420151  0.4999980    0.00000       Uiso       1.00
       H26          H  0.4383017  0.6782625  0.4999980    0.00000       Uiso       1.00
       H25          H  0.6420151  0.1658136  0.4999980    0.00000       Uiso       1.00
       H26          H  0.6782626  0.2399608  0.4999980    0.00000       Uiso       1.00
       H25          H  0.8341861  0.4762015  0.4999980    0.00000       Uiso       1.00
       H26          H  0.7600390  0.4383017  0.4999980    0.00000       Uiso       1.00
       H25          H  0.5237982  0.3579846  0.4999980    0.00000       Uiso       1.00
       H26          H  0.5616980  0.3217372  0.4999980    0.00000       Uiso       1.00
        C1          C  0.3539841  0.7093372  0.4999980    0.00000       Uiso       1.00
        C2          C  0.2906626  0.6446466  0.4999980    0.00000       Uiso       1.00
        C3          C  0.3553531  0.6460156  0.4999980    0.00000       Uiso       1.00
        C4          C  0.4182533  0.8421926  0.4999980    0.00000       Uiso       1.00
        C5          C  0.1578072  0.5760605  0.4999980    0.00000       Uiso       1.00
        C6          C  0.4239393  0.5817465  0.4999980    0.00000       Uiso       1.00
        C7          C  0.3752518  0.7532782  0.4999980    0.00000       Uiso       1.00
        C8          C  0.2467216  0.6219734  0.4999980    0.00000       Uiso       1.00
        C9          C  0.3780264  0.6247479  0.4999980    0.00000       Uiso       1.00
        N1          N  0.3747142  0.6880207  0.4999980    0.00000       Uiso       1.00
        N2          N  0.3119791  0.6866933  0.4999980    0.00000       Uiso       1.00
        N3          N  0.3133065  0.6252855  0.4999980    0.00000       Uiso       1.00
        C1          C  0.6460156  0.2906626  0.4999980    0.00000       Uiso       1.00
        C2          C  0.7093372  0.3553531  0.4999980    0.00000       Uiso       1.00
        C3          C  0.6446466  0.3539841  0.4999980    0.00000       Uiso       1.00
        C4          C  0.5817465  0.1578072  0.4999980    0.00000       Uiso       1.00
        C5          C  0.8421925  0.4239393  0.4999980    0.00000       Uiso       1.00
        C6          C  0.5760605  0.4182533  0.4999980    0.00000       Uiso       1.00
        C7          C  0.6247479  0.2467216  0.4999980    0.00000       Uiso       1.00
        C8          C  0.7532782  0.3780264  0.4999980    0.00000       Uiso       1.00
        C9          C  0.6219734  0.3752518  0.4999980    0.00000       Uiso       1.00
        N1          N  0.6252855  0.3119790  0.4999980    0.00000       Uiso       1.00
        N2          N  0.6880207  0.3133065  0.4999980    0.00000       Uiso       1.00
        N3          N  0.6866933  0.3747142  0.4999980    0.00000       Uiso       1.00
