data_crystal
 
_cell_length_a    15.42000
_cell_length_b    15.42000
_cell_length_c    14.06000
_cell_angle_alpha 90.00000
_cell_angle_beta  90.00000
_cell_angle_gamma 90.00000
 
_symmetry_space_group_name_Hall 'P 1'
_symmetry_space_group_name_H-M  'P 1'
 
loop_
_symmetry_equiv_pos_as_xyz
 'x,y,z' 
 
loop_
_atom_site_label
_atom_site_type_symbol
_atom_site_fract_x
_atom_site_fract_y
_atom_site_fract_z
_atom_site_charge
C          C       0.94063   0.05937   0.56351   0.0000000000
C          C       0.87726   0.12274   0.72002   0.0000000000
C          C       0.81295   0.18705   0.74753   0.0000000000
C          C       0.82448   0.17551   0.58744   0.0000000000
C          C       0.77971   0.22029   0.66397   0.0000000000
C          C       0.78459   0.21541   0.83702   0.0000000000
O          O       0.91953   0.08047   0.77660   0.0000000000
O          O       0.81130   0.18870   0.50324   0.0000000000
N          N       0.88359   0.11641   0.62229   0.0000000000
H          H       0.96111   0.15910   0.45319   0.0000000000
H          H       0.81061   0.18939   0.90252   0.0000000000
C          C       0.05937   0.94063   0.56351   0.0000000000
C          C       0.00000   0.88384   0.50000   0.0000000000
C          C       0.12274   0.87726   0.72002   0.0000000000
C          C       0.18705   0.81295   0.74753   0.0000000000
C          C       0.17552   0.82449   0.58744   0.0000000000
C          C       0.22029   0.77971   0.66397   0.0000000000
C          C       0.21541   0.78459   0.83702   0.0000000000
O          O       0.08047   0.91953   0.77660   0.0000000000
O          O       0.18870   0.81130   0.50324   0.0000000000
N          N       0.11641   0.88359   0.62229   0.0000000000
H          H       0.03889   0.84090   0.45319   0.0000000000
H          H       0.18939   0.81061   0.90252   0.0000000000
C          C       0.44063   0.44063   0.06351   0.0000000000
C          C       0.55937   0.55937   0.06351   0.0000000000
C          C       0.38384   0.50000   0.00000   0.0000000000
C          C       0.61616   0.50000   0.00000   0.0000000000
C          C       0.37726   0.37726   0.22002   0.0000000000
C          C       0.62274   0.62274   0.22002   0.0000000000
C          C       0.31295   0.31295   0.24753   0.0000000000
C          C       0.68705   0.68705   0.24753   0.0000000000
C          C       0.32449   0.32448   0.08744   0.0000000000
C          C       0.67551   0.67552   0.08744   0.0000000000
C          C       0.27971   0.27971   0.16397   0.0000000000
C          C       0.72029   0.72029   0.16397   0.0000000000
C          C       0.28459   0.28459   0.33702   0.0000000000
C          C       0.71541   0.71541   0.33702   0.0000000000
O          O       0.41953   0.41953   0.27660   0.0000000000
O          O       0.58047   0.58047   0.27660   0.0000000000
O          O       0.31130   0.31130   0.00324   0.0000000000
O          O       0.68870   0.68870   0.00324   0.0000000000
N          N       0.38359   0.38359   0.12229   0.0000000000
N          N       0.61641   0.61641   0.12229   0.0000000000
H          H       0.34090   0.53889   0.04681   0.0000000000
H          H       0.65910   0.46111   0.04681   0.0000000000
H          H       0.31061   0.31061   0.40252   0.0000000000
H          H       0.68939   0.68939   0.40252   0.0000000000
H          H       0.04172   0.04172   0.67075   0.0000000000
H          H       0.95828   0.95828   0.67075   0.0000000000
C          C       0.50000   0.50000   0.12523   0.0000000000
C          C       0.55937   0.44063   0.93649   0.0000000000
C          C       0.44063   0.55937   0.93649   0.0000000000
C          C       0.62274   0.37726   0.77998   0.0000000000
C          C       0.37726   0.62274   0.77998   0.0000000000
C          C       0.68705   0.31295   0.75247   0.0000000000
C          C       0.31295   0.68705   0.75247   0.0000000000
C          C       0.67552   0.32449   0.91256   0.0000000000
C          C       0.32448   0.67551   0.91256   0.0000000000
C          C       0.72029   0.27971   0.83603   0.0000000000
C          C       0.27971   0.72029   0.83603   0.0000000000
C          C       0.71541   0.28459   0.66298   0.0000000000
C          C       0.28459   0.71541   0.66298   0.0000000000
O          O       0.58047   0.41953   0.72340   0.0000000000
O          O       0.41953   0.58047   0.72340   0.0000000000
O          O       0.68870   0.31130   0.99676   0.0000000000
O          O       0.31130   0.68870   0.99676   0.0000000000
N          N       0.61641   0.38359   0.87771   0.0000000000
N          N       0.38359   0.61641   0.87771   0.0000000000
H          H       0.46111   0.34090   0.95319   0.0000000000
H          H       0.53889   0.65910   0.95319   0.0000000000
H          H       0.68939   0.31061   0.59748   0.0000000000
H          H       0.31061   0.68939   0.59748   0.0000000000
H          H       0.95828   0.04172   0.32925   0.0000000000
H          H       0.04172   0.95828   0.32925   0.0000000000
C          C       0.50000   0.50000   0.87477   0.0000000000
C          C       0.05937   0.05937   0.43649   0.0000000000
C          C       0.11616   0.00000   0.50000   0.0000000000
C          C       0.12274   0.12274   0.27998   0.0000000000
C          C       0.18705   0.18705   0.25247   0.0000000000
C          C       0.17551   0.17552   0.41256   0.0000000000
C          C       0.22029   0.22029   0.33603   0.0000000000
C          C       0.21541   0.21541   0.16298   0.0000000000
O          O       0.08047   0.08047   0.22340   0.0000000000
O          O       0.18870   0.18870   0.49676   0.0000000000
N          N       0.11641   0.11641   0.37771   0.0000000000
H          H       0.15910   0.03889   0.54681   0.0000000000
H          H       0.18939   0.18939   0.09748   0.0000000000
C          C       0.00000   0.00000   0.37477   0.0000000000
C          C       0.94063   0.94063   0.43649   0.0000000000
C          C       0.87726   0.87726   0.27998   0.0000000000
C          C       0.81295   0.81295   0.25247   0.0000000000
C          C       0.82449   0.82448   0.41256   0.0000000000
C          C       0.77971   0.77971   0.33603   0.0000000000
C          C       0.78459   0.78459   0.16298   0.0000000000
O          O       0.91953   0.91953   0.22340   0.0000000000
O          O       0.81130   0.81130   0.49676   0.0000000000
N          N       0.88359   0.88359   0.37771   0.0000000000
H          H       0.84090   0.96111   0.54681   0.0000000000
H          H       0.81061   0.81061   0.09748   0.0000000000
C          C       0.00000   0.11616   0.50000   0.0000000000
H          H       0.03889   0.15910   0.54681   0.0000000000
C          C       0.00000   0.00000   0.62523   0.0000000000
C          C       0.50000   0.38384   0.00000   0.0000000000
C          C       0.50000   0.61616   0.00000   0.0000000000
H          H       0.53889   0.34090   0.04681   0.0000000000
H          H       0.46111   0.65910   0.04681   0.0000000000
C          C       0.88384   0.00000   0.50000   0.0000000000
H          H       0.84090   0.03889   0.45319   0.0000000000
H          H       0.34090   0.46111   0.95319   0.0000000000
H          H       0.65910   0.53889   0.95319   0.0000000000
H          H       0.96111   0.84090   0.54681   0.0000000000
H          H       0.15910   0.96111   0.45319   0.0000000000
H          H       0.54172   0.45828   0.17075   0.0000000000
H          H       0.45828   0.54172   0.17075   0.0000000000
H          H       0.45828   0.45828   0.82925   0.0000000000
H          H       0.54172   0.54172   0.82925   0.0000000000
