data_crystal

_cell_length_a    17.44900
_cell_length_b    17.44900
_cell_length_c    17.44900
_cell_angle_alpha 90.00000
_cell_angle_beta  90.00000
_cell_angle_gamma 90.00000

_space_group_name_Hall 'P 1'
_space_group_name_H-M_alt  'P 1'

loop_
_symmetry_equiv_pos_as_xyz
'x,y,z' 

loop_
_atom_site_label
_atom_site_type_symbol
_atom_site_fract_x
_atom_site_fract_y
_atom_site_fract_z
C          C       0.59026   0.09096   0.30846 
C          C       0.90974   0.90904   0.80846 
C          C       0.40974   0.59096   0.19154 
C          C       0.09026   0.40904   0.69154 
C          C       0.30846   0.59026   0.09096 
C          C       0.80846   0.90974   0.90904 
C          C       0.19154   0.40974   0.59096 
C          C       0.69154   0.09026   0.40904 
C          C       0.09096   0.30846   0.59026 
C          C       0.90904   0.80846   0.90974 
C          C       0.59096   0.19154   0.40974 
C          C       0.40904   0.69154   0.09026 
C          C       0.40974   0.90904   0.69154 
C          C       0.09026   0.09096   0.19154 
C          C       0.59026   0.40904   0.80846 
C          C       0.90974   0.59096   0.30846 
C          C       0.69154   0.40974   0.90904 
C          C       0.19154   0.09026   0.09096 
C          C       0.80846   0.59026   0.40904 
C          C       0.30846   0.90974   0.59096 
C          C       0.90904   0.69154   0.40974 
C          C       0.09096   0.19154   0.09026 
C          C       0.40904   0.80846   0.59026 
C          C       0.59096   0.30846   0.90974 
C          C       0.55701   0.15744   0.34155 
C          C       0.94299   0.84256   0.84155 
C          C       0.44299   0.65744   0.15845 
C          C       0.05701   0.34256   0.65845 
C          C       0.34155   0.55701   0.15744 
C          C       0.84155   0.94299   0.84256 
C          C       0.15845   0.44299   0.65744 
C          C       0.65845   0.05701   0.34256 
C          C       0.15744   0.34155   0.55701 
C          C       0.84256   0.84155   0.94299 
C          C       0.65744   0.15845   0.44299 
C          C       0.34256   0.65845   0.05701 
C          C       0.44299   0.84256   0.65845 
C          C       0.05701   0.15744   0.15845 
C          C       0.55701   0.34256   0.84155 
C          C       0.94299   0.65744   0.34155 
C          C       0.65845   0.44299   0.84256 
C          C       0.15845   0.05701   0.15744 
C          C       0.84155   0.55701   0.34256 
C          C       0.34155   0.94299   0.65744 
C          C       0.84256   0.65845   0.44299 
C          C       0.15744   0.15845   0.05701 
C          C       0.34256   0.84155   0.55701 
C          C       0.65744   0.34155   0.94299 
C          C       0.55950   0.05503   0.24209 
C          C       0.94050   0.94497   0.74209 
C          C       0.44050   0.55503   0.25791 
C          C       0.05950   0.44497   0.75791 
C          C       0.24209   0.55950   0.05503 
C          C       0.74209   0.94050   0.94497 
C          C       0.25791   0.44050   0.55503 
C          C       0.75791   0.05950   0.44497 
C          C       0.05503   0.24209   0.55950 
C          C       0.94497   0.74209   0.94050 
C          C       0.55503   0.25791   0.44050 
C          C       0.44497   0.75791   0.05950 
C          C       0.44050   0.94497   0.75791 
C          C       0.05950   0.05503   0.25791 
C          C       0.55950   0.44497   0.74209 
C          C       0.94050   0.55503   0.24209 
C          C       0.75791   0.44050   0.94497 
C          C       0.25791   0.05950   0.05503 
C          C       0.74209   0.55950   0.44497 
C          C       0.24209   0.94050   0.55503 
C          C       0.94497   0.75791   0.44050 
C          C       0.05503   0.25791   0.05950 
C          C       0.44497   0.74209   0.55950 
C          C       0.55503   0.24209   0.94050 
C          C       0.59214   0.99020   0.20976 
C          C       0.90786   0.00980   0.70976 
C          C       0.40786   0.49020   0.29024 
C          C       0.09214   0.50980   0.79024 
C          C       0.20976   0.59214   0.99020 
C          C       0.70976   0.90786   0.00980 
C          C       0.29024   0.40786   0.49020 
C          C       0.79024   0.09214   0.50980 
C          C       0.99020   0.20976   0.59214 
C          C       0.00980   0.70976   0.90786 
C          C       0.49020   0.29024   0.40786 
C          C       0.50980   0.79024   0.09214 
C          C       0.40786   0.00980   0.79024 
C          C       0.09214   0.99020   0.29024 
C          C       0.59214   0.50980   0.70976 
C          C       0.90786   0.49020   0.20976 
C          C       0.79024   0.40786   0.00980 
C          C       0.29024   0.09214   0.99020 
C          C       0.70976   0.59214   0.50980 
C          C       0.20976   0.90786   0.49020 
C          C       0.00980   0.79024   0.40786 
C          C       0.99020   0.29024   0.09214 
C          C       0.50980   0.70976   0.59214 
C          C       0.49020   0.20976   0.90786 
C          C       0.65688   0.95815   0.24196 
C          C       0.84312   0.04185   0.74196 
C          C       0.34312   0.45815   0.25804 
C          C       0.15688   0.54185   0.75804 
C          C       0.24196   0.65688   0.95815 
C          C       0.74196   0.84312   0.04185 
C          C       0.25804   0.34312   0.45815 
C          C       0.75804   0.15688   0.54185 
C          C       0.95815   0.24196   0.65688 
C          C       0.04185   0.74196   0.84312 
C          C       0.45815   0.25804   0.34312 
C          C       0.54185   0.75804   0.15688 
C          C       0.34312   0.04185   0.75804 
C          C       0.15688   0.95815   0.25804 
C          C       0.65688   0.54185   0.74196 
C          C       0.84312   0.45815   0.24196 
C          C       0.75804   0.34312   0.04185 
C          C       0.25804   0.15688   0.95815 
C          C       0.74196   0.65688   0.54185 
C          C       0.24196   0.84312   0.45815 
C          C       0.04185   0.75804   0.34312 
C          C       0.95815   0.25804   0.15688 
C          C       0.54185   0.74196   0.65688 
C          C       0.45815   0.24196   0.84312 
C          C       0.68937   0.99063   0.30679 
C          C       0.81063   0.00937   0.80679 
C          C       0.31063   0.49063   0.19321 
C          C       0.18937   0.50937   0.69321 
C          C       0.30679   0.68937   0.99063 
C          C       0.80679   0.81063   0.00937 
C          C       0.19321   0.31063   0.49063 
C          C       0.69321   0.18937   0.50937 
C          C       0.99063   0.30679   0.68937 
C          C       0.00937   0.80679   0.81063 
C          C       0.49063   0.19321   0.31063 
C          C       0.50937   0.69321   0.18937 
C          C       0.31063   0.00937   0.69321 
C          C       0.18937   0.99063   0.19321 
C          C       0.68937   0.50937   0.80679 
C          C       0.81063   0.49063   0.30679 
C          C       0.69321   0.31063   0.00937 
C          C       0.19321   0.18937   0.99063 
C          C       0.80679   0.68937   0.50937 
C          C       0.30679   0.81063   0.49063 
C          C       0.00937   0.69321   0.31063 
C          C       0.99063   0.19321   0.18937 
C          C       0.50937   0.80679   0.68937 
C          C       0.49063   0.30679   0.81063 
O          O       0.68789   0.89529   0.20576 
O          O       0.81211   0.10471   0.70576 
O          O       0.31211   0.39529   0.29424 
O          O       0.18789   0.60471   0.79424 
O          O       0.20576   0.68789   0.89529 
O          O       0.70576   0.81211   0.10471 
O          O       0.29424   0.31211   0.39529 
O          O       0.79424   0.18789   0.60471 
O          O       0.89529   0.20576   0.68789 
O          O       0.10471   0.70576   0.81211 
O          O       0.39529   0.29424   0.31211 
O          O       0.60471   0.79424   0.18789 
O          O       0.31211   0.10471   0.79424 
O          O       0.18789   0.89529   0.29424 
O          O       0.68789   0.60471   0.70576 
O          O       0.81211   0.39529   0.20576 
O          O       0.79424   0.31211   0.10471 
O          O       0.29424   0.18789   0.89529 
O          O       0.70576   0.68789   0.60471 
O          O       0.20576   0.81211   0.39529 
O          O       0.10471   0.79424   0.31211 
O          O       0.89529   0.29424   0.18789 
O          O       0.60471   0.70576   0.68789 
O          O       0.39529   0.20576   0.81211 
O          O       0.56542   0.95933   0.14280 
O          O       0.93458   0.04067   0.64280 
O          O       0.43458   0.45933   0.35720 
O          O       0.06542   0.54067   0.85720 
O          O       0.14280   0.56542   0.95933 
O          O       0.64280   0.93458   0.04067 
O          O       0.35720   0.43458   0.45933 
O          O       0.85720   0.06542   0.54067 
O          O       0.95933   0.14280   0.56542 
O          O       0.04067   0.64280   0.93458 
O          O       0.45933   0.35720   0.43458 
O          O       0.54067   0.85720   0.06542 
O          O       0.43458   0.04067   0.85720 
O          O       0.06542   0.95933   0.35720 
O          O       0.56542   0.54067   0.64280 
O          O       0.93458   0.45933   0.14280 
O          O       0.85720   0.43458   0.04067 
O          O       0.35720   0.06542   0.95933 
O          O       0.64280   0.56542   0.54067 
O          O       0.14280   0.93458   0.45933 
O          O       0.04067   0.85720   0.43458 
O          O       0.95933   0.35720   0.06542 
O          O       0.54067   0.64280   0.56542 
O          O       0.45933   0.14280   0.93458 
H          H       0.16667   0.25716   0.46408 
H          H       0.33333   0.74284   0.96408 
H          H       0.83333   0.75716   0.03592 
H          H       0.66667   0.24284   0.53592 
H          H       0.46408   0.16667   0.25716 
H          H       0.96408   0.33333   0.74284 
H          H       0.03592   0.83333   0.75716 
H          H       0.53592   0.66667   0.24284 
H          H       0.25716   0.46408   0.16667 
H          H       0.74284   0.96408   0.33333 
H          H       0.75716   0.03592   0.83333 
H          H       0.24284   0.53592   0.66667 
H          H       0.83333   0.74284   0.53592 
H          H       0.66667   0.25716   0.03592 
H          H       0.16667   0.24284   0.96408 
H          H       0.33333   0.75716   0.46408 
H          H       0.53592   0.83333   0.74284 
H          H       0.03592   0.66667   0.25716 
H          H       0.96408   0.16667   0.24284 
H          H       0.46408   0.33333   0.75716 
H          H       0.74284   0.53592   0.83333 
H          H       0.25716   0.03592   0.66667 
H          H       0.24284   0.96408   0.16667 
H          H       0.75716   0.46408   0.33333 
H          H       0.28650   0.49392   0.57947 
H          H       0.21350   0.50608   0.07947 
H          H       0.71350   0.99392   0.92053 
H          H       0.78650   0.00608   0.42053 
H          H       0.57947   0.28650   0.49392 
H          H       0.07947   0.21350   0.50608 
H          H       0.92053   0.71350   0.99392 
H          H       0.42053   0.78650   0.00608 
H          H       0.49392   0.57947   0.28650 
H          H       0.50608   0.07947   0.21350 
H          H       0.99392   0.92053   0.71350 
H          H       0.00608   0.42053   0.78650 
H          H       0.71350   0.50608   0.42053 
H          H       0.78650   0.49392   0.92053 
H          H       0.28650   0.00608   0.07947 
H          H       0.21350   0.99392   0.57947 
H          H       0.42053   0.71350   0.50608 
H          H       0.92053   0.78650   0.49392 
H          H       0.07947   0.28650   0.00608 
H          H       0.57947   0.21350   0.99392 
H          H       0.50608   0.42053   0.71350 
H          H       0.49392   0.92053   0.78650 
H          H       0.00608   0.07947   0.28650 
H          H       0.99392   0.57947   0.21350 
Si         Si      0.62500   0.62500   0.62500 
Si         Si      0.87500   0.37500   0.12500 
Si         Si      0.37500   0.12500   0.87500 
Si         Si      0.12500   0.87500   0.37500 
Si         Si      0.37500   0.37500   0.37500 
Si         Si      0.12500   0.62500   0.87500 
Si         Si      0.62500   0.87500   0.12500 
Si         Si      0.87500   0.12500   0.62500 
Na         Na      0.50000   0.50000   0.00000 
Na         Na      0.00000   0.50000   0.50000 
Na         Na      0.50000   0.00000   0.50000 
Na         Na      0.00000   0.00000   0.00000 
Na         Na      0.50000   0.50000   0.50000 
Na         Na      0.00000   0.50000   0.00000 
Na         Na      0.50000   0.00000   0.00000 
Na         Na      0.00000   0.00000   0.50000 
Na         Na      0.72673   0.72673   0.72673 
Na         Na      0.77327   0.27327   0.22673 
Na         Na      0.27327   0.22673   0.77327 
Na         Na      0.22673   0.77327   0.27327 
Na         Na      0.27327   0.27327   0.27327 
Na         Na      0.22673   0.72673   0.77327 
Na         Na      0.72673   0.77327   0.22673 
Na         Na      0.77327   0.22673   0.72673 
