data_crystal

_cell_length_a    17.27030
_cell_length_b    17.27030
_cell_length_c    17.27030
_cell_angle_alpha 90.00000
_cell_angle_beta  90.00000
_cell_angle_gamma 90.00000

_space_group_name_Hall 'P 1'
_space_group_name_H-M_alt  'P 1'

loop_
_symmetry_equiv_pos_as_xyz
'x,y,z' 

loop_
_atom_site_label
_atom_site_type_symbol
_atom_site_fract_x
_atom_site_fract_y
_atom_site_fract_z
C          C       0.78058   0.06813   0.44779 
C          C       0.44779   0.78058   0.06813 
C          C       0.06813   0.44779   0.78058 
C          C       0.21942   0.93187   0.55221 
C          C       0.55221   0.21942   0.93187 
C          C       0.93187   0.55221   0.21942 
C          C       0.70865   0.11363   0.40105 
C          C       0.40105   0.70865   0.11363 
C          C       0.11363   0.40105   0.70865 
C          C       0.29135   0.88637   0.59895 
C          C       0.59895   0.29135   0.88637 
C          C       0.88637   0.59895   0.29135 
C          C       0.81670   0.10462   0.50978 
C          C       0.50978   0.81670   0.10462 
C          C       0.10462   0.50978   0.81670 
C          C       0.18330   0.89538   0.49022 
C          C       0.49022   0.18330   0.89538 
C          C       0.89538   0.49022   0.18330 
C          C       0.29802   0.71132   0.01580 
C          C       0.01580   0.29802   0.71132 
C          C       0.71132   0.01580   0.29802 
C          C       0.70198   0.28868   0.98420 
C          C       0.98420   0.70198   0.28868 
C          C       0.28868   0.98420   0.70198 
C          C       0.33190   0.67446   0.08573 
C          C       0.08573   0.33190   0.67446 
C          C       0.67446   0.08573   0.33190 
C          C       0.66810   0.32554   0.91427 
C          C       0.91427   0.66810   0.32554 
C          C       0.32554   0.91427   0.66810 
C          C       0.23583   0.67160   0.98750 
C          C       0.98750   0.23583   0.67160 
C          C       0.67160   0.98750   0.23583 
C          C       0.76417   0.32840   0.01250 
C          C       0.01250   0.76417   0.32840 
C          C       0.32840   0.01250   0.76417 
C          C       0.76589   0.97039   0.96464 
C          C       0.96464   0.76589   0.97039 
C          C       0.97039   0.96464   0.76589 
C          C       0.23411   0.02961   0.03536 
C          C       0.03536   0.23411   0.02961 
C          C       0.02961   0.03536   0.23411 
C          C       0.83794   0.94147   0.93521 
C          C       0.93521   0.83794   0.94147 
C          C       0.94147   0.93521   0.83794 
C          C       0.16206   0.05853   0.06479 
C          C       0.06479   0.16206   0.05853 
C          C       0.05853   0.06479   0.16206 
C          C       0.71632   0.92471   0.01186 
C          C       0.01186   0.71632   0.92471 
C          C       0.92471   0.01186   0.71632 
C          C       0.28368   0.07529   0.98814 
C          C       0.98814   0.28368   0.07529 
C          C       0.07529   0.98814   0.28368 
C          C       0.23924   0.31018   0.51945 
C          C       0.51945   0.23924   0.31018 
C          C       0.31018   0.51945   0.23924 
C          C       0.76076   0.68982   0.48055 
C          C       0.48055   0.76076   0.68982 
C          C       0.68982   0.48055   0.76076 
C          C       0.18962   0.33771   0.57700 
C          C       0.57700   0.18962   0.33771 
C          C       0.33771   0.57700   0.18962 
C          C       0.81038   0.66229   0.42300 
C          C       0.42300   0.81038   0.66229 
C          C       0.66229   0.42300   0.81038 
C          C       0.30245   0.34774   0.49502 
C          C       0.49502   0.30245   0.34774 
C          C       0.34774   0.49502   0.30245 
C          C       0.69755   0.65226   0.50498 
C          C       0.50498   0.69755   0.65226 
C          C       0.65226   0.50498   0.69755 
C          C       0.54525   0.42373   0.71653 
C          C       0.71653   0.54525   0.42373 
C          C       0.42373   0.71653   0.54525 
C          C       0.45475   0.57627   0.28347 
C          C       0.28347   0.45475   0.57627 
C          C       0.57627   0.28347   0.45475 
C          C       0.57978   0.48081   0.67936 
C          C       0.67936   0.57978   0.48081 
C          C       0.48081   0.67936   0.57978 
C          C       0.42022   0.51919   0.32064 
C          C       0.32064   0.42022   0.51919 
C          C       0.51919   0.32064   0.42022 
C          C       0.69684   0.39470   0.87929 
C          C       0.87929   0.69684   0.39470 
C          C       0.39470   0.87929   0.69684 
C          C       0.30316   0.60530   0.12071 
C          C       0.12071   0.30316   0.60530 
C          C       0.60530   0.12071   0.30316 
C          C       0.46611   0.20210   0.82307 
C          C       0.82307   0.46611   0.20210 
C          C       0.20210   0.82307   0.46611 
C          C       0.53389   0.79790   0.17693 
C          C       0.17693   0.53389   0.79790 
C          C       0.79790   0.17693   0.53389 
C          C       0.49530   0.26492   0.78766 
C          C       0.78766   0.49530   0.26492 
C          C       0.26492   0.78766   0.49530 
C          C       0.50470   0.73508   0.21234 
C          C       0.21234   0.50470   0.73508 
C          C       0.73508   0.21234   0.50470 
C          C       0.59269   0.38864   0.78243 
C          C       0.78243   0.59269   0.38864 
C          C       0.38864   0.78243   0.59269 
C          C       0.40731   0.61136   0.21757 
C          C       0.21757   0.40731   0.61136 
C          C       0.61136   0.21757   0.40731 
C          C       0.56442   0.31986   0.81702 
C          C       0.81702   0.56442   0.31986 
C          C       0.31986   0.81702   0.56442 
C          C       0.43558   0.68014   0.18298 
C          C       0.18298   0.43558   0.68014 
C          C       0.68014   0.18298   0.43558 
C          C       0.75263   0.42849   0.92222 
C          C       0.92222   0.75263   0.42849 
C          C       0.42849   0.92222   0.75263 
C          C       0.24737   0.57151   0.07778 
C          C       0.07778   0.24737   0.57151 
C          C       0.57151   0.07778   0.24737 
C          C       0.78310   0.40062   0.98800 
C          C       0.98800   0.78310   0.40062 
C          C       0.40062   0.98800   0.78310 
C          C       0.21690   0.59938   0.01200 
C          C       0.01200   0.21690   0.59938 
C          C       0.59938   0.01200   0.21690 
C          C       0.81479   0.82839   0.02512 
C          C       0.02512   0.81479   0.82839 
C          C       0.82839   0.02512   0.81479 
C          C       0.18521   0.17161   0.97488 
C          C       0.97488   0.18521   0.17161 
C          C       0.17161   0.97488   0.18521 
C          C       0.86695   0.87262   0.97019 
C          C       0.97019   0.86695   0.87262 
C          C       0.87262   0.97019   0.86695 
C          C       0.13305   0.12738   0.02981 
C          C       0.02981   0.13305   0.12738 
C          C       0.12738   0.02981   0.13305 
C          C       0.73692   0.85331   0.03800 
C          C       0.03800   0.73692   0.85331 
C          C       0.85331   0.03800   0.73692 
C          C       0.26308   0.14669   0.96200 
C          C       0.96200   0.26308   0.14669 
C          C       0.14669   0.96200   0.26308 
O          O       0.67475   0.89832   0.21124 
O          O       0.21124   0.67475   0.89832 
O          O       0.89832   0.21124   0.67475 
O          O       0.32525   0.10168   0.78876 
O          O       0.78876   0.32525   0.10168 
O          O       0.10168   0.78876   0.32525 
O          O       0.54673   0.89652   0.07846 
O          O       0.07846   0.54673   0.89652 
O          O       0.89652   0.07846   0.54673 
O          O       0.45327   0.10348   0.92154 
O          O       0.92154   0.45327   0.10348 
O          O       0.10348   0.92154   0.45327 
O          O       0.85528   0.12888   0.71723 
O          O       0.71723   0.85528   0.12888 
O          O       0.12888   0.71723   0.85528 
O          O       0.14472   0.87112   0.28277 
O          O       0.28277   0.14472   0.87112 
O          O       0.87112   0.28277   0.14472 
O          O       0.95431   0.15737   0.54536 
O          O       0.54536   0.95431   0.15737 
O          O       0.15737   0.54536   0.95431 
O          O       0.04569   0.84263   0.45464 
O          O       0.45464   0.04569   0.84263 
O          O       0.84263   0.45464   0.04569 
O          O       0.32140   0.43592   0.34203 
O          O       0.34203   0.32140   0.43592 
O          O       0.43592   0.34203   0.32140 
O          O       0.67860   0.56408   0.65797 
O          O       0.65797   0.67860   0.56408 
O          O       0.56408   0.65797   0.67860 
O          O       0.47632   0.37126   0.45989 
O          O       0.45989   0.47632   0.37126 
O          O       0.37126   0.45989   0.47632 
O          O       0.52368   0.62874   0.54011 
O          O       0.54011   0.52368   0.62874 
O          O       0.62874   0.54011   0.52368 
O          O       0.19566   0.60810   0.83020 
O          O       0.83020   0.19566   0.60810 
O          O       0.60810   0.83020   0.19566 
O          O       0.80434   0.39190   0.16980 
O          O       0.16980   0.80434   0.39190 
O          O       0.39190   0.16980   0.80434 
O          O       0.04293   0.64541   0.95585 
O          O       0.95585   0.04293   0.64541 
O          O       0.64541   0.95585   0.04293 
O          O       0.95707   0.35459   0.04415 
O          O       0.04415   0.95707   0.35459 
O          O       0.35459   0.04415   0.95707 
H          H       0.48507   0.40021   0.70303 
H          H       0.70303   0.48507   0.40021 
H          H       0.40021   0.70303   0.48507 
H          H       0.51493   0.59979   0.29697 
H          H       0.29697   0.51493   0.59979 
H          H       0.59979   0.29697   0.51493 
H          H       0.74769   0.50982   0.77306 
H          H       0.77306   0.74769   0.50982 
H          H       0.50982   0.77306   0.74769 
H          H       0.25231   0.49018   0.22694 
H          H       0.22694   0.25231   0.49018 
H          H       0.49018   0.22694   0.25231 
H          H       0.47059   0.28461   0.72970 
H          H       0.72970   0.47059   0.28461 
H          H       0.28461   0.72970   0.47059 
H          H       0.52941   0.71539   0.27030 
H          H       0.27030   0.52941   0.71539 
H          H       0.71539   0.27030   0.52941 
H          H       0.57135   0.20056   0.99216 
H          H       0.99216   0.57135   0.20056 
H          H       0.20056   0.99216   0.57135 
H          H       0.42865   0.79944   0.00784 
H          H       0.00784   0.42865   0.79944 
H          H       0.79944   0.00784   0.42865 
H          H       0.94357   0.16241   0.22506 
H          H       0.22506   0.94357   0.16241 
H          H       0.16241   0.22506   0.94357 
H          H       0.05643   0.83759   0.77494 
H          H       0.77494   0.05643   0.83759 
H          H       0.83759   0.77494   0.05643 
H          H       0.04966   0.25329   0.96809 
H          H       0.96809   0.04966   0.25329 
H          H       0.25329   0.96809   0.04966 
H          H       0.95034   0.74671   0.03191 
H          H       0.03191   0.95034   0.74671 
H          H       0.74671   0.03191   0.95034 
H          H       0.22169   0.51370   0.09663 
H          H       0.09663   0.22169   0.51370 
H          H       0.51370   0.09663   0.22169 
H          H       0.77831   0.48630   0.90337 
H          H       0.90337   0.77831   0.48630 
H          H       0.48630   0.90337   0.77831 
H          H       0.32436   0.76685   0.99172 
H          H       0.99172   0.32436   0.76685 
H          H       0.76685   0.99172   0.32436 
H          H       0.67564   0.23315   0.00828 
H          H       0.00828   0.67564   0.23315 
H          H       0.23315   0.00828   0.67564 
Si         Si      0.12716   0.62753   0.89761 
Si         Si      0.89761   0.12716   0.62753 
Si         Si      0.62753   0.89761   0.12716 
Si         Si      0.87284   0.37247   0.10239 
Si         Si      0.10239   0.87284   0.37247 
Si         Si      0.37247   0.10239   0.87284 
Si         Si      0.39866   0.39866   0.39866 
Si         Si      0.60134   0.60134   0.60134 
Na         Na      0.00000   0.00000   0.00000 
Na         Na      0.00000   0.50000   0.00000 
Na         Na      0.00000   0.00000   0.50000 
Na         Na      0.50000   0.00000   0.00000 
Na         Na      0.50000   0.50000   0.50000 
Na         Na      0.29429   0.29429   0.29429 
Na         Na      0.70571   0.70571   0.70571 
Na         Na      0.26527   0.20500   0.77749 
Na         Na      0.77749   0.26527   0.20500 
Na         Na      0.20500   0.77749   0.26527 
Na         Na      0.73473   0.79500   0.22251 
Na         Na      0.22251   0.73473   0.79500 
Na         Na      0.79500   0.22251   0.73473 
Na         Na      0.50000   0.50000   0.00000 
Na         Na      0.00000   0.50000   0.50000 
Na         Na      0.50000   0.00000   0.50000 
