data_crystal
 
_cell_length_a    16.97000
_cell_length_b    13.51000
_cell_length_c    16.33000
_cell_angle_alpha 90.00000
_cell_angle_beta  108.87000
_cell_angle_gamma 90.00000
 
_symmetry_space_group_name_Hall 'P 1'
_symmetry_space_group_name_H-M  'P 1'
 
loop_
_symmetry_equiv_pos_as_xyz
 'x,y,z' 
 
loop_
_atom_site_label
_atom_site_type_symbol
_atom_site_fract_x
_atom_site_fract_y
_atom_site_fract_z
_atom_site_charge
O          O       0.45939   0.43310   0.17779   0.0000000000
O          O       0.54061   0.43310   0.82221   0.0000000000
O          O       0.54062   0.43308   0.32219   0.0000000000
O          O       0.45938   0.43308   0.67781   0.0000000000
O          O       0.53124   0.68786   0.18298   0.0000000000
O          O       0.46876   0.68786   0.81702   0.0000000000
O          O       0.46878   0.68784   0.31703   0.0000000000
O          O       0.53122   0.68784   0.68297   0.0000000000
C          C       0.49969   0.59794   0.14092   0.0000000000
C          C       0.50031   0.59794   0.85908   0.0000000000
C          C       0.46980   0.53236   0.20424   0.0000000000
C          C       0.53020   0.53236   0.79576   0.0000000000
C          C       0.50000   0.37380   0.24999   0.0000000000
C          C       0.50000   0.37380   0.75001   0.0000000000
C          C       0.43400   0.30655   0.26658   0.0000000000
C          C       0.56600   0.30655   0.73342   0.0000000000
C          C       0.56599   0.30655   0.23337   0.0000000000
C          C       0.43401   0.30655   0.76663   0.0000000000
C          C       0.53022   0.53235   0.29576   0.0000000000
C          C       0.46978   0.53235   0.70424   0.0000000000
C          C       0.50034   0.59792   0.35909   0.0000000000
C          C       0.49966   0.59792   0.64091   0.0000000000
C          C       0.15221   0.85937   0.73837   0.0000000000
C          C       0.84779   0.85937   0.26163   0.0000000000
N          N       0.20877   0.81623   0.81624   0.0000000000
N          N       0.79123   0.81623   0.18376   0.0000000000
C          C       0.20132   0.73779   0.85966   0.0000000000
C          C       0.79868   0.73779   0.14034   0.0000000000
C          C       0.27387   0.70423   0.93455   0.0000000000
C          C       0.72613   0.70423   0.06545   0.0000000000
C          C       0.27288   0.61326   0.97603   0.0000000000
C          C       0.72712   0.61326   0.02397   0.0000000000
C          C       0.34656   0.57313   0.03447   0.0000000000
C          C       0.65344   0.57313   0.96553   0.0000000000
C          C       0.42324   0.62572   0.05875   0.0000000000
C          C       0.57676   0.62572   0.94125   0.0000000000
C          C       0.41913   0.72189   0.02291   0.0000000000
C          C       0.58087   0.72189   0.97709   0.0000000000
C          C       0.34792   0.75880   0.96050   0.0000000000
C          C       0.65208   0.75880   0.03950   0.0000000000
C          C       0.08095   0.81214   0.68343   0.0000000000
C          C       0.91905   0.81214   0.31657   0.0000000000
C          C       0.03382   0.85854   0.60577   0.0000000000
C          C       0.96618   0.85854   0.39423   0.0000000000
C          C       0.05540   0.95073   0.57938   0.0000000000
C          C       0.94460   0.95073   0.42062   0.0000000000
C          C       0.12533   0.99792   0.63833   0.0000000000
C          C       0.87467   0.99792   0.36167   0.0000000000
C          C       0.17314   0.95244   0.71480   0.0000000000
C          C       0.82686   0.95244   0.28520   0.0000000000
C          C       0.84780   0.85935   0.76165   0.0000000000
C          C       0.15220   0.85935   0.23835   0.0000000000
N          N       0.79125   0.81620   0.68378   0.0000000000
N          N       0.20875   0.81620   0.31622   0.0000000000
C          C       0.79870   0.73775   0.64036   0.0000000000
C          C       0.20130   0.73775   0.35964   0.0000000000
C          C       0.72615   0.70419   0.56547   0.0000000000
C          C       0.27385   0.70419   0.43453   0.0000000000
C          C       0.72714   0.61322   0.52399   0.0000000000
C          C       0.27286   0.61322   0.47601   0.0000000000
C          C       0.65346   0.57309   0.46555   0.0000000000
C          C       0.34654   0.57309   0.53445   0.0000000000
C          C       0.57679   0.62569   0.44126   0.0000000000
C          C       0.42321   0.62569   0.55874   0.0000000000
C          C       0.58090   0.72186   0.47711   0.0000000000
C          C       0.41910   0.72186   0.52289   0.0000000000
C          C       0.65210   0.75875   0.53952   0.0000000000
C          C       0.34790   0.75875   0.46048   0.0000000000
C          C       0.82685   0.95241   0.78522   0.0000000000
C          C       0.17315   0.95241   0.21478   0.0000000000
C          C       0.87465   0.99790   0.86168   0.0000000000
C          C       0.12535   0.99790   0.13832   0.0000000000
C          C       0.94460   0.95074   0.92063   0.0000000000
C          C       0.05540   0.95074   0.07937   0.0000000000
C          C       0.96620   0.85856   0.89423   0.0000000000
C          C       0.03380   0.85856   0.10577   0.0000000000
C          C       0.91908   0.81215   0.81658   0.0000000000
C          C       0.08092   0.81215   0.18342   0.0000000000
C          C       0.83871   0.20052   0.09609   0.0000000000
C          C       0.16129   0.20052   0.90391   0.0000000000
N          N       0.77644   0.26743   0.10634   0.0000000000
N          N       0.22356   0.26743   0.89366   0.0000000000
C          C       0.78772   0.35574   0.14020   0.0000000000
C          C       0.21228   0.35574   0.85980   0.0000000000
C          C       0.71540   0.41874   0.13742   0.0000000000
C          C       0.28460   0.41874   0.86258   0.0000000000
C          C       0.72653   0.50745   0.18427   0.0000000000
C          C       0.27347   0.50745   0.81573   0.0000000000
C          C       0.65848   0.56986   0.17774   0.0000000000
C          C       0.34152   0.56986   0.82226   0.0000000000
C          C       0.57578   0.54314   0.12810   0.0000000000
C          C       0.42422   0.54314   0.87190   0.0000000000
C          C       0.56676   0.45054   0.08765   0.0000000000
C          C       0.43324   0.45054   0.91235   0.0000000000
C          C       0.63453   0.39175   0.08766   0.0000000000
C          C       0.36547   0.39175   0.91234   0.0000000000
C          C       0.92039   0.23061   0.10512   0.0000000000
C          C       0.07961   0.23061   0.89488   0.0000000000
C          C       0.97369   0.16781   0.07944   0.0000000000
C          C       0.02631   0.16781   0.92056   0.0000000000
C          C       0.94443   0.07730   0.03967   0.0000000000
C          C       0.05557   0.07730   0.96033   0.0000000000
C          C       0.86787   0.04107   0.04254   0.0000000000
C          C       0.13213   0.04107   0.95746   0.0000000000
C          C       0.81449   0.10386   0.06810   0.0000000000
C          C       0.18551   0.10386   0.93190   0.0000000000
C          C       0.16131   0.20049   0.40391   0.0000000000
C          C       0.83869   0.20049   0.59609   0.0000000000
N          N       0.22359   0.26739   0.39367   0.0000000000
N          N       0.77641   0.26739   0.60633   0.0000000000
C          C       0.21231   0.35570   0.35980   0.0000000000
C          C       0.78769   0.35570   0.64020   0.0000000000
C          C       0.28463   0.41871   0.36259   0.0000000000
C          C       0.71537   0.41871   0.63741   0.0000000000
C          C       0.27349   0.50741   0.31573   0.0000000000
C          C       0.72651   0.50741   0.68427   0.0000000000
C          C       0.34154   0.56983   0.32226   0.0000000000
C          C       0.65846   0.56983   0.67774   0.0000000000
C          C       0.42424   0.54311   0.37191   0.0000000000
C          C       0.57576   0.54311   0.62809   0.0000000000
C          C       0.43327   0.45051   0.41235   0.0000000000
C          C       0.56673   0.45051   0.58765   0.0000000000
C          C       0.36549   0.39171   0.41233   0.0000000000
C          C       0.63451   0.39171   0.58767   0.0000000000
C          C       0.18551   0.10382   0.43190   0.0000000000
C          C       0.81449   0.10382   0.56810   0.0000000000
C          C       0.13213   0.04104   0.45746   0.0000000000
C          C       0.86787   0.04104   0.54254   0.0000000000
C          C       0.05558   0.07728   0.46033   0.0000000000
C          C       0.94442   0.07728   0.53967   0.0000000000
C          C       0.02633   0.16780   0.42057   0.0000000000
C          C       0.97367   0.16780   0.57943   0.0000000000
C          C       0.07963   0.23058   0.39489   0.0000000000
C          C       0.92037   0.23058   0.60511   0.0000000000
H          H       0.48427   0.73168   0.18264   0.0000000000
H          H       0.51573   0.73168   0.81736   0.0000000000
H          H       0.51575   0.73166   0.31739   0.0000000000
H          H       0.48425   0.73166   0.68261   0.0000000000
H          H       0.40824   0.55980   0.20336   0.0000000000
H          H       0.59176   0.55980   0.79664   0.0000000000
H          H       0.45797   0.27147   0.33144   0.0000000000
H          H       0.54203   0.27147   0.66856   0.0000000000
H          H       0.41556   0.24687   0.21715   0.0000000000
H          H       0.58444   0.24687   0.78285   0.0000000000
H          H       0.37662   0.34928   0.25983   0.0000000000
H          H       0.62338   0.34928   0.74017   0.0000000000
H          H       0.54201   0.27148   0.16850   0.0000000000
H          H       0.45799   0.27148   0.83150   0.0000000000
H          H       0.58442   0.24685   0.28279   0.0000000000
H          H       0.41558   0.24685   0.71721   0.0000000000
H          H       0.62337   0.34927   0.24013   0.0000000000
H          H       0.37663   0.34927   0.75987   0.0000000000
H          H       0.59178   0.55979   0.29664   0.0000000000
H          H       0.40822   0.55979   0.70336   0.0000000000
H          H       0.14499   0.69388   0.83921   0.0000000000
H          H       0.85501   0.69388   0.16079   0.0000000000
H          H       0.21617   0.56996   0.95907   0.0000000000
H          H       0.78383   0.56996   0.04093   0.0000000000
H          H       0.34192   0.50111   0.06115   0.0000000000
H          H       0.65808   0.50111   0.93885   0.0000000000
H          H       0.46990   0.77320   0.04749   0.0000000000
H          H       0.53010   0.77320   0.95251   0.0000000000
H          H       0.35090   0.83146   0.93361   0.0000000000
H          H       0.64910   0.83146   0.06639   0.0000000000
H          H       0.06225   0.74037   0.70004   0.0000000000
H          H       0.93775   0.74037   0.29996   0.0000000000
H          H       0.97750   0.82222   0.56643   0.0000000000
H          H       0.02250   0.82222   0.43357   0.0000000000
H          H       0.14352   0.07164   0.62580   0.0000000000
H          H       0.85648   0.07164   0.37420   0.0000000000
H          H       0.22729   0.99073   0.75671   0.0000000000
H          H       0.77271   0.99073   0.24329   0.0000000000
H          H       0.85503   0.69383   0.66082   0.0000000000
H          H       0.14497   0.69383   0.33918   0.0000000000
H          H       0.78385   0.56992   0.54095   0.0000000000
H          H       0.21615   0.56992   0.45905   0.0000000000
H          H       0.65809   0.50108   0.43886   0.0000000000
H          H       0.34191   0.50108   0.56114   0.0000000000
H          H       0.53013   0.77317   0.45253   0.0000000000
H          H       0.46987   0.77317   0.54747   0.0000000000
H          H       0.64913   0.83142   0.56641   0.0000000000
H          H       0.35087   0.83142   0.43359   0.0000000000
H          H       0.77269   0.99068   0.74331   0.0000000000
H          H       0.22731   0.99068   0.25669   0.0000000000
H          H       0.85645   0.07161   0.87420   0.0000000000
H          H       0.14355   0.07161   0.12580   0.0000000000
H          H       0.02254   0.82226   0.93358   0.0000000000
H          H       0.97746   0.82226   0.06642   0.0000000000
H          H       0.93780   0.74038   0.79997   0.0000000000
H          H       0.06220   0.74038   0.20003   0.0000000000
H          H       0.84965   0.38535   0.16957   0.0000000000
H          H       0.15035   0.38535   0.83043   0.0000000000
H          H       0.78824   0.53005   0.22413   0.0000000000
H          H       0.21176   0.53005   0.77587   0.0000000000
H          H       0.67133   0.63743   0.21529   0.0000000000
H          H       0.32867   0.63743   0.78471   0.0000000000
H          H       0.50661   0.41713   0.06446   0.0000000000
H          H       0.49339   0.41713   0.93554   0.0000000000
H          H       0.62267   0.32168   0.05363   0.0000000000
H          H       0.37733   0.32168   0.94637   0.0000000000
H          H       0.94266   0.30365   0.12829   0.0000000000
H          H       0.05734   0.30365   0.87171   0.0000000000
H          H       0.03561   0.19437   0.08638   0.0000000000
H          H       0.96439   0.19437   0.91362   0.0000000000
H          H       0.84631   0.96731   0.02031   0.0000000000
H          H       0.15369   0.96731   0.97969   0.0000000000
H          H       0.75267   0.07817   0.06312   0.0000000000
H          H       0.24733   0.07817   0.93688   0.0000000000
H          H       0.15038   0.38531   0.33042   0.0000000000
H          H       0.84962   0.38531   0.66958   0.0000000000
H          H       0.21178   0.53002   0.27587   0.0000000000
H          H       0.78822   0.53002   0.72413   0.0000000000
H          H       0.32869   0.63741   0.28472   0.0000000000
H          H       0.67131   0.63741   0.71528   0.0000000000
H          H       0.49342   0.41710   0.43554   0.0000000000
H          H       0.50658   0.41710   0.56446   0.0000000000
H          H       0.37736   0.32164   0.44637   0.0000000000
H          H       0.62264   0.32164   0.55363   0.0000000000
H          H       0.24733   0.07812   0.43688   0.0000000000
H          H       0.75267   0.07812   0.56312   0.0000000000
H          H       0.15368   0.96728   0.47970   0.0000000000
H          H       0.84632   0.96728   0.52030   0.0000000000
H          H       0.96441   0.19438   0.41364   0.0000000000
H          H       0.03559   0.19438   0.58636   0.0000000000
H          H       0.05737   0.30364   0.37173   0.0000000000
H          H       0.94263   0.30364   0.62827   0.0000000000
C          C       0.00000   0.01084   0.50000   0.0000000000
C          C       0.00000   0.01086   0.00000   0.0000000000
