data_crystal
 
_cell_length_a    16.98000
_cell_length_b    13.47000
_cell_length_c    16.40000
_cell_angle_alpha 90.00000
_cell_angle_beta  108.87000
_cell_angle_gamma 90.00000
 
_symmetry_space_group_name_Hall 'P 1'
_symmetry_space_group_name_H-M  'P 1'
 
loop_
_symmetry_equiv_pos_as_xyz
 'x,y,z' 
 
loop_
_atom_site_label
_atom_site_type_symbol
_atom_site_fract_x
_atom_site_fract_y
_atom_site_fract_z
_atom_site_charge
O          O       0.45882   0.43189   0.17822   0.0000000000
O          O       0.54118   0.43189   0.82178   0.0000000000
O          O       0.54118   0.43188   0.32178   0.0000000000
O          O       0.45882   0.43188   0.67822   0.0000000000
O          O       0.52754   0.68838   0.18165   0.0000000000
O          O       0.47246   0.68838   0.81835   0.0000000000
O          O       0.47247   0.68837   0.31836   0.0000000000
O          O       0.52753   0.68837   0.68164   0.0000000000
C          C       0.49727   0.59745   0.14057   0.0000000000
C          C       0.50273   0.59745   0.85943   0.0000000000
C          C       0.46914   0.53135   0.20465   0.0000000000
C          C       0.53086   0.53135   0.79535   0.0000000000
C          C       0.50000   0.37249   0.25000   0.0000000000
C          C       0.50000   0.37249   0.75000   0.0000000000
C          C       0.43443   0.30523   0.26752   0.0000000000
C          C       0.56557   0.30523   0.73248   0.0000000000
C          C       0.56556   0.30523   0.23246   0.0000000000
C          C       0.43444   0.30523   0.76754   0.0000000000
C          C       0.53086   0.53134   0.29535   0.0000000000
C          C       0.46914   0.53134   0.70465   0.0000000000
C          C       0.50274   0.59745   0.35943   0.0000000000
C          C       0.49726   0.59745   0.64057   0.0000000000
C          C       0.14150   0.86685   0.74490   0.0000000000
C          C       0.85850   0.86685   0.25510   0.0000000000
N          N       0.18857   0.83109   0.83074   0.0000000000
N          N       0.81143   0.83109   0.16926   0.0000000000
C          C       0.19511   0.73534   0.86223   0.0000000000
C          C       0.80489   0.73534   0.13777   0.0000000000
C          C       0.26980   0.70267   0.93634   0.0000000000
C          C       0.73020   0.70267   0.06366   0.0000000000
C          C       0.27007   0.61246   0.97941   0.0000000000
C          C       0.72993   0.61246   0.02059   0.0000000000
C          C       0.34367   0.57172   0.03666   0.0000000000
C          C       0.65633   0.57172   0.96334   0.0000000000
C          C       0.41900   0.62456   0.05838   0.0000000000
C          C       0.58100   0.62456   0.94162   0.0000000000
C          C       0.41657   0.71878   0.02106   0.0000000000
C          C       0.58343   0.71878   0.97894   0.0000000000
C          C       0.34508   0.75541   0.95896   0.0000000000
C          C       0.65492   0.75541   0.04104   0.0000000000
C          C       0.07190   0.81876   0.68730   0.0000000000
C          C       0.92810   0.81876   0.31270   0.0000000000
C          C       0.02952   0.86149   0.60662   0.0000000000
C          C       0.97048   0.86149   0.39338   0.0000000000
C          C       0.05451   0.95173   0.57935   0.0000000000
C          C       0.94549   0.95173   0.42065   0.0000000000
C          C       0.12347   0.99870   0.63856   0.0000000000
C          C       0.87653   0.99870   0.36144   0.0000000000
C          C       0.16644   0.95705   0.71865   0.0000000000
C          C       0.83356   0.95705   0.28135   0.0000000000
C          C       0.85851   0.86684   0.75510   0.0000000000
C          C       0.14149   0.86684   0.24490   0.0000000000
N          N       0.81144   0.83108   0.66926   0.0000000000
N          N       0.18856   0.83108   0.33074   0.0000000000
C          C       0.80490   0.73533   0.63777   0.0000000000
C          C       0.19510   0.73533   0.36223   0.0000000000
C          C       0.73021   0.70265   0.56366   0.0000000000
C          C       0.26979   0.70265   0.43634   0.0000000000
C          C       0.72994   0.61245   0.52059   0.0000000000
C          C       0.27006   0.61245   0.47941   0.0000000000
C          C       0.65633   0.57170   0.46334   0.0000000000
C          C       0.34367   0.57170   0.53666   0.0000000000
C          C       0.58101   0.62455   0.44163   0.0000000000
C          C       0.41899   0.62455   0.55837   0.0000000000
C          C       0.58344   0.71876   0.47895   0.0000000000
C          C       0.41656   0.71876   0.52105   0.0000000000
C          C       0.65493   0.75540   0.54105   0.0000000000
C          C       0.34507   0.75540   0.45895   0.0000000000
C          C       0.83357   0.95704   0.78135   0.0000000000
C          C       0.16643   0.95704   0.21865   0.0000000000
C          C       0.87653   0.99869   0.86143   0.0000000000
C          C       0.12347   0.99869   0.13857   0.0000000000
C          C       0.94550   0.95172   0.92065   0.0000000000
C          C       0.05450   0.95172   0.07935   0.0000000000
C          C       0.97049   0.86148   0.89339   0.0000000000
C          C       0.02951   0.86148   0.10661   0.0000000000
C          C       0.92810   0.81875   0.81271   0.0000000000
C          C       0.07190   0.81875   0.18729   0.0000000000
C          C       0.84406   0.19835   0.10679   0.0000000000
C          C       0.15594   0.19835   0.89321   0.0000000000
N          N       0.78612   0.26236   0.13023   0.0000000000
N          N       0.21388   0.26236   0.86977   0.0000000000
C          C       0.78845   0.36468   0.13391   0.0000000000
C          C       0.21155   0.36468   0.86609   0.0000000000
C          C       0.71473   0.42275   0.13579   0.0000000000
C          C       0.28527   0.42275   0.86421   0.0000000000
C          C       0.72447   0.51144   0.18260   0.0000000000
C          C       0.27553   0.51144   0.81740   0.0000000000
C          C       0.65588   0.57285   0.17573   0.0000000000
C          C       0.34412   0.57285   0.82427   0.0000000000
C          C       0.57431   0.54405   0.12744   0.0000000000
C          C       0.42569   0.54405   0.87256   0.0000000000
C          C       0.56567   0.45083   0.08751   0.0000000000
C          C       0.43433   0.45083   0.91249   0.0000000000
C          C       0.63429   0.39367   0.08696   0.0000000000
C          C       0.36571   0.39367   0.91304   0.0000000000
C          C       0.92648   0.22613   0.11608   0.0000000000
C          C       0.07352   0.22613   0.88392   0.0000000000
C          C       0.97613   0.16650   0.08266   0.0000000000
C          C       0.02387   0.16650   0.91734   0.0000000000
C          C       0.94430   0.07833   0.03901   0.0000000000
C          C       0.05570   0.07833   0.96099   0.0000000000
C          C       0.86761   0.04309   0.04157   0.0000000000
C          C       0.13239   0.04309   0.95843   0.0000000000
C          C       0.81698   0.10401   0.07274   0.0000000000
C          C       0.18302   0.10401   0.92726   0.0000000000
C          C       0.15593   0.19834   0.39320   0.0000000000
C          C       0.84407   0.19834   0.60680   0.0000000000
N          N       0.21387   0.26236   0.36976   0.0000000000
N          N       0.78613   0.26236   0.63024   0.0000000000
C          C       0.21155   0.36469   0.36609   0.0000000000
C          C       0.78845   0.36469   0.63391   0.0000000000
C          C       0.28527   0.42275   0.36421   0.0000000000
C          C       0.71473   0.42275   0.63579   0.0000000000
C          C       0.27553   0.51144   0.31740   0.0000000000
C          C       0.72447   0.51144   0.68260   0.0000000000
C          C       0.34413   0.57284   0.32427   0.0000000000
C          C       0.65587   0.57284   0.67573   0.0000000000
C          C       0.42569   0.54404   0.37257   0.0000000000
C          C       0.57431   0.54404   0.62743   0.0000000000
C          C       0.43434   0.45083   0.41249   0.0000000000
C          C       0.56566   0.45083   0.58751   0.0000000000
C          C       0.36571   0.39366   0.41304   0.0000000000
C          C       0.63429   0.39366   0.58696   0.0000000000
C          C       0.18301   0.10400   0.42724   0.0000000000
C          C       0.81699   0.10400   0.57276   0.0000000000
C          C       0.13238   0.04309   0.45842   0.0000000000
C          C       0.86762   0.04309   0.54158   0.0000000000
C          C       0.05570   0.07833   0.46099   0.0000000000
C          C       0.94430   0.07833   0.53901   0.0000000000
C          C       0.02387   0.16651   0.41734   0.0000000000
C          C       0.97613   0.16651   0.58266   0.0000000000
C          C       0.07352   0.22614   0.38392   0.0000000000
C          C       0.92648   0.22614   0.61608   0.0000000000
O          O       0.14086   0.67494   0.82899   0.0000000000
O          O       0.85914   0.67494   0.17101   0.0000000000
O          O       0.85915   0.67492   0.67102   0.0000000000
O          O       0.14085   0.67492   0.32898   0.0000000000
O          O       0.85040   0.41001   0.13355   0.0000000000
O          O       0.14960   0.41001   0.86645   0.0000000000
O          O       0.14960   0.41002   0.36645   0.0000000000
O          O       0.85040   0.41002   0.63355   0.0000000000
H          H       0.47989   0.73110   0.18154   0.0000000000
H          H       0.52011   0.73110   0.81846   0.0000000000
H          H       0.52012   0.73110   0.31847   0.0000000000
H          H       0.47988   0.73110   0.68153   0.0000000000
H          H       0.40790   0.55846   0.20491   0.0000000000
H          H       0.59210   0.55846   0.79509   0.0000000000
H          H       0.45900   0.27032   0.33218   0.0000000000
H          H       0.54100   0.27032   0.66782   0.0000000000
H          H       0.41551   0.24530   0.21843   0.0000000000
H          H       0.58449   0.24530   0.78157   0.0000000000
H          H       0.37724   0.34815   0.26153   0.0000000000
H          H       0.62276   0.34815   0.73847   0.0000000000
H          H       0.54099   0.27033   0.16780   0.0000000000
H          H       0.45901   0.27033   0.83220   0.0000000000
H          H       0.58448   0.24529   0.28155   0.0000000000
H          H       0.41552   0.24529   0.71845   0.0000000000
H          H       0.62275   0.34814   0.23846   0.0000000000
H          H       0.37725   0.34814   0.76154   0.0000000000
H          H       0.59211   0.55845   0.29509   0.0000000000
H          H       0.40789   0.55845   0.70491   0.0000000000
H          H       0.22718   0.88400   0.87063   0.0000000000
H          H       0.77282   0.88400   0.12937   0.0000000000
H          H       0.21321   0.56987   0.96538   0.0000000000
H          H       0.78679   0.56987   0.03462   0.0000000000
H          H       0.33903   0.50034   0.06458   0.0000000000
H          H       0.66097   0.50034   0.93542   0.0000000000
H          H       0.46769   0.76980   0.04444   0.0000000000
H          H       0.53231   0.76980   0.95556   0.0000000000
H          H       0.35027   0.82569   0.92945   0.0000000000
H          H       0.64973   0.82569   0.07055   0.0000000000
H          H       0.04791   0.75068   0.70457   0.0000000000
H          H       0.95209   0.75068   0.29543   0.0000000000
H          H       0.97337   0.82566   0.56632   0.0000000000
H          H       0.02663   0.82566   0.43368   0.0000000000
H          H       0.14492   0.07071   0.62506   0.0000000000
H          H       0.85508   0.07071   0.37494   0.0000000000
H          H       0.21903   0.99701   0.76138   0.0000000000
H          H       0.78097   0.99701   0.23862   0.0000000000
H          H       0.77283   0.88398   0.62937   0.0000000000
H          H       0.22717   0.88398   0.37063   0.0000000000
H          H       0.78680   0.56986   0.53462   0.0000000000
H          H       0.21320   0.56986   0.46538   0.0000000000
H          H       0.66097   0.50033   0.43542   0.0000000000
H          H       0.33903   0.50033   0.56458   0.0000000000
H          H       0.53232   0.76979   0.45557   0.0000000000
H          H       0.46768   0.76979   0.54443   0.0000000000
H          H       0.64974   0.82568   0.57056   0.0000000000
H          H       0.35026   0.82568   0.42944   0.0000000000
H          H       0.78098   0.99700   0.73861   0.0000000000
H          H       0.21902   0.99700   0.26139   0.0000000000
H          H       0.85509   0.07071   0.87493   0.0000000000
H          H       0.14491   0.07071   0.12507   0.0000000000
H          H       0.02663   0.82565   0.93368   0.0000000000
H          H       0.97337   0.82565   0.06632   0.0000000000
H          H       0.95210   0.75067   0.79544   0.0000000000
H          H       0.04790   0.75067   0.20456   0.0000000000
H          H       0.73331   0.22777   0.13663   0.0000000000
H          H       0.26669   0.22777   0.86337   0.0000000000
H          H       0.78564   0.53449   0.22305   0.0000000000
H          H       0.21436   0.53449   0.77695   0.0000000000
H          H       0.66797   0.64087   0.21277   0.0000000000
H          H       0.33203   0.64087   0.78723   0.0000000000
H          H       0.50588   0.41629   0.06444   0.0000000000
H          H       0.49412   0.41629   0.93556   0.0000000000
H          H       0.62364   0.32437   0.05165   0.0000000000
H          H       0.37636   0.32437   0.94835   0.0000000000
H          H       0.95410   0.29294   0.14937   0.0000000000
H          H       0.04590   0.29294   0.85063   0.0000000000
H          H       0.03843   0.19185   0.08979   0.0000000000
H          H       0.96157   0.19185   0.91021   0.0000000000
H          H       0.84431   0.97072   0.01643   0.0000000000
H          H       0.15569   0.97072   0.98357   0.0000000000
H          H       0.75541   0.07817   0.06859   0.0000000000
H          H       0.24459   0.07817   0.93141   0.0000000000
H          H       0.26669   0.22777   0.36336   0.0000000000
H          H       0.73331   0.22777   0.63664   0.0000000000
H          H       0.21436   0.53449   0.27695   0.0000000000
H          H       0.78564   0.53449   0.72305   0.0000000000
H          H       0.33203   0.64087   0.28724   0.0000000000
H          H       0.66797   0.64087   0.71276   0.0000000000
H          H       0.49413   0.41628   0.43556   0.0000000000
H          H       0.50587   0.41628   0.56444   0.0000000000
H          H       0.37636   0.32436   0.44834   0.0000000000
H          H       0.62364   0.32436   0.55166   0.0000000000
H          H       0.24457   0.07815   0.43138   0.0000000000
H          H       0.75543   0.07815   0.56862   0.0000000000
H          H       0.15568   0.97072   0.48355   0.0000000000
H          H       0.84432   0.97072   0.51645   0.0000000000
H          H       0.96158   0.19186   0.41022   0.0000000000
H          H       0.03842   0.19186   0.58978   0.0000000000
H          H       0.04590   0.29295   0.35065   0.0000000000
H          H       0.95410   0.29295   0.64935   0.0000000000
C          C       0.00000   0.01201   0.50000   0.0000000000
C          C       0.00000   0.01201   0.00000   0.0000000000
