data_crystal
 
_cell_length_a    22.22000
_cell_length_b    22.22000
_cell_length_c    30.01000
_cell_angle_alpha 90.00000
_cell_angle_beta  90.00000
_cell_angle_gamma 90.00000
 
_symmetry_space_group_name_Hall 'P 1'
_symmetry_space_group_name_H-M  'P 1'
 
loop_
_symmetry_equiv_pos_as_xyz
 'x,y,z' 
 
loop_
_atom_site_label
_atom_site_type_symbol
_atom_site_fract_x
_atom_site_fract_y
_atom_site_fract_z
C          C       0.40587   0.32915   0.89250 
C          C       0.59413   0.67085   0.89250 
C          C       0.17085   0.90587   0.39250 
C          C       0.82915   0.09413   0.39250 
C          C       0.59413   0.32915   0.10750 
C          C       0.40587   0.67085   0.10750 
C          C       0.82915   0.90587   0.60750 
C          C       0.17085   0.09413   0.60750 
C          C       0.09413   0.17085   0.60750 
C          C       0.90587   0.82915   0.60750 
C          C       0.32915   0.59413   0.10750 
C          C       0.67085   0.40587   0.10750 
C          C       0.90587   0.17085   0.39250 
C          C       0.09413   0.82915   0.39250 
C          C       0.67085   0.59413   0.89250 
C          C       0.32915   0.40587   0.89250 
C          C       0.44086   0.36392   0.92137 
C          C       0.55914   0.63608   0.92137 
C          C       0.13608   0.94086   0.42137 
C          C       0.86392   0.05914   0.42137 
C          C       0.55914   0.36392   0.07863 
C          C       0.44086   0.63608   0.07863 
C          C       0.86392   0.94086   0.57863 
C          C       0.13608   0.05914   0.57863 
C          C       0.05914   0.13608   0.57863 
C          C       0.94086   0.86392   0.57863 
C          C       0.36392   0.55914   0.07863 
C          C       0.63608   0.44086   0.07863 
C          C       0.94086   0.13608   0.42137 
C          C       0.05914   0.86392   0.42137 
C          C       0.63608   0.55914   0.92137 
C          C       0.36392   0.44086   0.92137 
C          C       0.27077   0.19357   0.73606 
C          C       0.72923   0.80643   0.73606 
C          C       0.30643   0.77077   0.23606 
C          C       0.69357   0.22923   0.23606 
C          C       0.72923   0.19357   0.26394 
C          C       0.27077   0.80643   0.26394 
C          C       0.69357   0.77077   0.76394 
C          C       0.30643   0.22923   0.76394 
C          C       0.22923   0.30643   0.76394 
C          C       0.77077   0.69357   0.76394 
C          C       0.19357   0.72923   0.26394 
C          C       0.80643   0.27077   0.26394 
C          C       0.77077   0.30643   0.23606 
C          C       0.22923   0.69357   0.23606 
C          C       0.80643   0.72923   0.73606 
C          C       0.19357   0.27077   0.73606 
H          H       0.42276   0.28616   0.88094 
H          H       0.57724   0.71384   0.88094 
H          H       0.21384   0.92276   0.38094 
H          H       0.78616   0.07724   0.38094 
H          H       0.57724   0.28616   0.11906 
H          H       0.42276   0.71384   0.11906 
H          H       0.78616   0.92276   0.61906 
H          H       0.21384   0.07724   0.61906 
H          H       0.07724   0.21384   0.61906 
H          H       0.92276   0.78616   0.61906 
H          H       0.28616   0.57724   0.11906 
H          H       0.71384   0.42276   0.11906 
H          H       0.92276   0.21384   0.38094 
H          H       0.07724   0.78616   0.38094 
H          H       0.71384   0.57724   0.88094 
H          H       0.28616   0.42276   0.88094 
H          H       0.48437   0.34605   0.92993 
H          H       0.51563   0.65395   0.92993 
H          H       0.15395   0.98437   0.42993 
H          H       0.84605   0.01563   0.42993 
H          H       0.51563   0.34605   0.07007 
H          H       0.48437   0.65395   0.07007 
H          H       0.84605   0.98437   0.57007 
H          H       0.15395   0.01563   0.57007 
H          H       0.01563   0.15395   0.57007 
H          H       0.98437   0.84605   0.57007 
H          H       0.34605   0.51563   0.07007 
H          H       0.65395   0.48437   0.07007 
H          H       0.98437   0.15395   0.42993 
H          H       0.01563   0.84605   0.42993 
H          H       0.65395   0.51563   0.92993 
H          H       0.34605   0.48437   0.92993 
H          H       0.28728   0.14996   0.72548 
H          H       0.71272   0.85004   0.72548 
H          H       0.35004   0.78728   0.22548 
H          H       0.64996   0.21272   0.22548 
H          H       0.71272   0.14996   0.27452 
H          H       0.28728   0.85004   0.27452 
H          H       0.64996   0.78728   0.77452 
H          H       0.35004   0.21272   0.77452 
H          H       0.21272   0.35004   0.77452 
H          H       0.78728   0.64996   0.77452 
H          H       0.14996   0.71272   0.27452 
H          H       0.85004   0.28728   0.27452 
H          H       0.78728   0.35004   0.22548 
H          H       0.21272   0.64996   0.22548 
H          H       0.85004   0.71272   0.72548 
H          H       0.14996   0.28728   0.72548 
H          H       0.96906   0.89126   0.48076 
H          H       0.03094   0.10874   0.48076 
H          H       0.60874   0.46906   0.98076 
H          H       0.39126   0.53094   0.98076 
H          H       0.03094   0.89126   0.51924 
H          H       0.96906   0.10874   0.51924 
H          H       0.39126   0.46906   0.01924 
H          H       0.60874   0.53094   0.01924 
H          H       0.53094   0.60874   0.01924 
H          H       0.46906   0.39126   0.01924 
H          H       0.89126   0.03094   0.51924 
H          H       0.10874   0.96906   0.51924 
H          H       0.46906   0.60874   0.98076 
H          H       0.53094   0.39126   0.98076 
H          H       0.10874   0.03094   0.48076 
H          H       0.89126   0.96906   0.48076 
C          C       0.42011   0.42011   0.93767 
C          C       0.57989   0.57989   0.93767 
C          C       0.07989   0.92011   0.43767 
C          C       0.92011   0.07989   0.43767 
C          C       0.57989   0.42011   0.06233 
C          C       0.42011   0.57989   0.06233 
C          C       0.92011   0.92011   0.56233 
C          C       0.07989   0.07989   0.56233 
N          N       0.31618   0.31618   0.85021 
N          N       0.68382   0.68382   0.85021 
N          N       0.18382   0.81618   0.35021 
N          N       0.81618   0.18382   0.35021 
N          N       0.68382   0.31618   0.14979 
N          N       0.31618   0.68382   0.14979 
N          N       0.81618   0.81618   0.64979 
N          N       0.18382   0.18382   0.64979 
C          C       0.32115   0.32115   0.80549 
C          C       0.67885   0.67885   0.80549 
C          C       0.17885   0.82115   0.30549 
C          C       0.82115   0.17885   0.30549 
C          C       0.67885   0.32115   0.19451 
C          C       0.32115   0.67885   0.19451 
C          C       0.82115   0.82115   0.69451 
C          C       0.17885   0.17885   0.69451 
H          H       0.35264   0.35264   0.79070 
H          H       0.64736   0.64736   0.79070 
H          H       0.14736   0.85264   0.29070 
H          H       0.85264   0.14736   0.29070 
H          H       0.64736   0.35264   0.20930 
H          H       0.35264   0.64736   0.20930 
H          H       0.85264   0.85264   0.70930 
H          H       0.14736   0.14736   0.70930 
C          C       0.95957   0.95957   0.53121 
C          C       0.04043   0.04043   0.53121 
C          C       0.54043   0.45957   0.03121 
C          C       0.45957   0.54043   0.03121 
C          C       0.04043   0.95957   0.46879 
C          C       0.95957   0.04043   0.46879 
C          C       0.45957   0.45957   0.96879 
C          C       0.54043   0.54043   0.96879 
C          C       0.65008   0.65008   0.87809 
C          C       0.34992   0.34992   0.87809 
C          C       0.84992   0.15008   0.37809 
C          C       0.15008   0.84992   0.37809 
C          C       0.34992   0.65008   0.12191 
C          C       0.65008   0.34992   0.12191 
C          C       0.15008   0.15008   0.62191 
C          C       0.84992   0.84992   0.62191 
C          C       0.78573   0.78573   0.72198 
C          C       0.21427   0.21427   0.72198 
C          C       0.71427   0.28573   0.22198 
C          C       0.28573   0.71427   0.22198 
C          C       0.21427   0.78573   0.27802 
C          C       0.78573   0.21427   0.27802 
C          C       0.28573   0.28573   0.77802 
C          C       0.71427   0.71427   0.77802 
C          C       0.00000   0.92048   0.50000 
C          C       0.00000   0.07952   0.50000 
C          C       0.57952   0.50000   0.00000 
C          C       0.42048   0.50000   0.00000 
C          C       0.50000   0.57952   0.00000 
C          C       0.50000   0.42048   0.00000 
C          C       0.92048   0.00000   0.50000 
C          C       0.07952   0.00000   0.50000 
C          C       0.00000   0.00000   0.56036 
C          C       0.50000   0.50000   0.06036 
C          C       0.00000   0.00000   0.43964 
C          C       0.50000   0.50000   0.93964 
H          H       0.02855   0.97145   0.58234 
H          H       0.97145   0.02855   0.58234 
H          H       0.52855   0.52855   0.08234 
H          H       0.47145   0.47145   0.08234 
H          H       0.97145   0.97145   0.41766 
H          H       0.02855   0.02855   0.41766 
H          H       0.47145   0.52855   0.91766 
H          H       0.52855   0.47145   0.91766 
