data_crystal

_cell_length_a    22.58000
_cell_length_b    22.58000
_cell_length_c    9.72000
_cell_angle_alpha 90.00000
_cell_angle_beta  90.00000
_cell_angle_gamma 90.00000

_space_group_name_Hall 'P 1'
_space_group_name_H-M_alt  'P 1'

loop_
_symmetry_equiv_pos_as_xyz
'x,y,z' 

loop_
_atom_site_label
_atom_site_type_symbol
_atom_site_fract_x
_atom_site_fract_y
_atom_site_fract_z
C          C       0.40705   0.33150   0.67209 
C          C       0.59295   0.66850   0.67209 
C          C       0.16850   0.90705   0.17209 
C          C       0.83150   0.09295   0.17209 
C          C       0.59295   0.33150   0.32791 
C          C       0.40705   0.66850   0.32791 
C          C       0.83150   0.90705   0.82791 
C          C       0.16850   0.09295   0.82791 
C          C       0.09295   0.16850   0.82791 
C          C       0.90705   0.83150   0.82791 
C          C       0.33150   0.59295   0.32791 
C          C       0.66850   0.40705   0.32791 
C          C       0.90705   0.16850   0.17209 
C          C       0.09295   0.83150   0.17209 
C          C       0.66850   0.59295   0.67209 
C          C       0.33150   0.40705   0.67209 
C          C       0.44198   0.36620   0.75863 
C          C       0.55802   0.63380   0.75863 
C          C       0.13380   0.94198   0.25863 
C          C       0.86620   0.05802   0.25863 
C          C       0.55802   0.36620   0.24137 
C          C       0.44198   0.63380   0.24137 
C          C       0.86620   0.94198   0.74137 
C          C       0.13380   0.05802   0.74137 
C          C       0.05802   0.13380   0.74137 
C          C       0.94198   0.86620   0.74137 
C          C       0.36620   0.55802   0.24137 
C          C       0.63380   0.44198   0.24137 
C          C       0.94198   0.13380   0.25863 
C          C       0.05802   0.86620   0.25863 
C          C       0.63380   0.55802   0.75863 
C          C       0.36620   0.44198   0.75863 
C          C       0.26956   0.19352   0.21157 
C          C       0.73044   0.80648   0.21157 
C          C       0.30648   0.76956   0.71157 
C          C       0.69352   0.23044   0.71157 
C          C       0.73044   0.19352   0.78843 
C          C       0.26956   0.80648   0.78843 
C          C       0.69352   0.76956   0.28843 
C          C       0.30648   0.23044   0.28843 
C          C       0.23044   0.30648   0.28843 
C          C       0.76956   0.69352   0.28843 
C          C       0.19352   0.73044   0.78843 
C          C       0.80648   0.26956   0.78843 
C          C       0.76956   0.30648   0.71157 
C          C       0.23044   0.69352   0.71157 
C          C       0.80648   0.73044   0.21157 
C          C       0.19352   0.26956   0.21157 
H          H       0.42349   0.28904   0.63684 
H          H       0.57651   0.71096   0.63684 
H          H       0.21096   0.92349   0.13684 
H          H       0.78904   0.07651   0.13684 
H          H       0.57651   0.28904   0.36316 
H          H       0.42349   0.71096   0.36316 
H          H       0.78904   0.92349   0.86316 
H          H       0.21096   0.07651   0.86316 
H          H       0.07651   0.21096   0.86316 
H          H       0.92349   0.78904   0.86316 
H          H       0.28904   0.57651   0.36316 
H          H       0.71096   0.42349   0.36316 
H          H       0.92349   0.21096   0.13684 
H          H       0.07651   0.78904   0.13684 
H          H       0.71096   0.57651   0.63684 
H          H       0.28904   0.42349   0.63684 
H          H       0.48505   0.34886   0.78373 
H          H       0.51495   0.65114   0.78373 
H          H       0.15114   0.98505   0.28373 
H          H       0.84886   0.01495   0.28373 
H          H       0.51495   0.34886   0.21627 
H          H       0.48505   0.65114   0.21627 
H          H       0.84886   0.98505   0.71627 
H          H       0.15114   0.01495   0.71627 
H          H       0.01495   0.15114   0.71627 
H          H       0.98505   0.84886   0.71627 
H          H       0.34886   0.51495   0.21627 
H          H       0.65114   0.48505   0.21627 
H          H       0.98505   0.15114   0.28373 
H          H       0.01495   0.84886   0.28373 
H          H       0.65114   0.51495   0.78373 
H          H       0.34886   0.48505   0.78373 
H          H       0.28519   0.15001   0.18156 
H          H       0.71481   0.84999   0.18156 
H          H       0.34999   0.78519   0.68156 
H          H       0.65001   0.21481   0.68156 
H          H       0.71481   0.15001   0.81844 
H          H       0.28519   0.84999   0.81844 
H          H       0.65001   0.78519   0.31844 
H          H       0.34999   0.21481   0.31844 
H          H       0.21481   0.34999   0.31844 
H          H       0.78519   0.65001   0.31844 
H          H       0.15001   0.71481   0.81844 
H          H       0.84999   0.28519   0.81844 
H          H       0.78519   0.34999   0.68156 
H          H       0.21481   0.65001   0.68156 
H          H       0.84999   0.71481   0.18156 
H          H       0.15001   0.28519   0.18156 
H          H       0.96945   0.89311   0.44078 
H          H       0.03055   0.10689   0.44078 
H          H       0.60689   0.46945   0.94078 
H          H       0.39311   0.53055   0.94078 
H          H       0.03055   0.89311   0.55922 
H          H       0.96945   0.10689   0.55922 
H          H       0.39311   0.46945   0.05922 
H          H       0.60689   0.53055   0.05922 
H          H       0.53055   0.60689   0.05922 
H          H       0.46945   0.39311   0.05922 
H          H       0.89311   0.03055   0.55922 
H          H       0.10689   0.96945   0.55922 
H          H       0.46945   0.60689   0.94078 
H          H       0.53055   0.39311   0.94078 
H          H       0.10689   0.03055   0.44078 
H          H       0.89311   0.96945   0.44078 
C          C       0.42158   0.42158   0.80827 
C          C       0.57842   0.57842   0.80827 
C          C       0.07842   0.92158   0.30827 
C          C       0.92158   0.07842   0.30827 
C          C       0.57842   0.42158   0.19173 
C          C       0.42158   0.57842   0.19173 
C          C       0.92158   0.92158   0.69173 
C          C       0.07842   0.07842   0.69173 
N          N       0.31809   0.31809   0.54592 
N          N       0.68191   0.68191   0.54592 
N          N       0.18191   0.81809   0.04592 
N          N       0.81809   0.18191   0.04592 
N          N       0.68191   0.31809   0.45408 
N          N       0.31809   0.68191   0.45408 
N          N       0.81809   0.81809   0.95408 
N          N       0.18191   0.18191   0.95408 
C          C       0.32240   0.32240   0.40792 
C          C       0.67760   0.67760   0.40792 
C          C       0.17760   0.82240   0.90792 
C          C       0.82240   0.17760   0.90792 
C          C       0.67760   0.32240   0.59208 
C          C       0.32240   0.67760   0.59208 
C          C       0.82240   0.82240   0.09208 
C          C       0.17760   0.17760   0.09208 
H          H       0.35312   0.35312   0.36025 
H          H       0.64688   0.64688   0.36025 
H          H       0.14688   0.85312   0.86025 
H          H       0.85312   0.14688   0.86025 
H          H       0.64688   0.35312   0.63975 
H          H       0.35312   0.64688   0.63975 
H          H       0.85312   0.85312   0.13975 
H          H       0.14688   0.14688   0.13975 
C          C       0.96033   0.96033   0.59631 
C          C       0.03967   0.03967   0.59631 
C          C       0.53967   0.46033   0.09631 
C          C       0.46033   0.53967   0.09631 
C          C       0.03967   0.96033   0.40369 
C          C       0.96033   0.03967   0.40369 
C          C       0.46033   0.46033   0.90369 
C          C       0.53967   0.53967   0.90369 
C          C       0.64835   0.64835   0.62972 
C          C       0.35165   0.35165   0.62972 
C          C       0.85165   0.14835   0.12972 
C          C       0.14835   0.85165   0.12972 
C          C       0.35165   0.64835   0.37028 
C          C       0.64835   0.35165   0.37028 
C          C       0.14835   0.14835   0.87028 
C          C       0.85165   0.85165   0.87028 
C          C       0.78703   0.78703   0.17343 
C          C       0.21297   0.21297   0.17343 
C          C       0.71297   0.28703   0.67343 
C          C       0.28703   0.71297   0.67343 
C          C       0.21297   0.78703   0.82657 
C          C       0.78703   0.21297   0.82657 
C          C       0.28703   0.28703   0.32657 
C          C       0.71297   0.71297   0.32657 
C          C       0.00000   0.92184   0.50000 
C          C       0.00000   0.07816   0.50000 
C          C       0.57816   0.50000   0.00000 
C          C       0.42184   0.50000   0.00000 
C          C       0.50000   0.57816   0.00000 
C          C       0.50000   0.42184   0.00000 
C          C       0.92184   0.00000   0.50000 
C          C       0.07816   0.00000   0.50000 
C          C       0.00000   0.00000   0.68651 
C          C       0.50000   0.50000   0.18651 
C          C       0.00000   0.00000   0.31349 
C          C       0.50000   0.50000   0.81349 
H          H       0.02811   0.97189   0.75437 
H          H       0.97189   0.02811   0.75437 
H          H       0.52811   0.52811   0.25437 
H          H       0.47189   0.47189   0.25437 
H          H       0.97189   0.97189   0.24563 
H          H       0.02811   0.02811   0.24563 
H          H       0.47189   0.52811   0.74563 
H          H       0.52811   0.47189   0.74563 
