data_crystal

_cell_length_a    20.40430
_cell_length_b    15.70140
_cell_length_c    10.39260
_cell_angle_alpha 90.00000
_cell_angle_beta  86.50000
_cell_angle_gamma 90.00000

_space_group_name_Hall 'P 1'
_space_group_name_H-M_alt  'P 1'

loop_
_symmetry_equiv_pos_as_xyz
'x,y,z' 

loop_
_atom_site_label
_atom_site_type_symbol
_atom_site_fract_x
_atom_site_fract_y
_atom_site_fract_z
C          C       0.33965   0.85545   0.49919 
C          C       0.33965   0.14455   0.49919 
C          C       0.39420   0.90576   0.46369 
C          C       0.39420   0.09424   0.46369 
C          C       0.44925   0.85362   0.14729 
C          C       0.44925   0.14638   0.14729 
C          C       0.39484   0.80287   0.18267 
C          C       0.39484   0.19713   0.18267 
C          C       0.33955   0.80390   0.10963 
C          C       0.33955   0.19610   0.10963 
N          N       0.28420   0.24792   0.14924 
N          N       0.28420   0.75208   0.14924 
C          C       0.44887   0.09355   0.03884 
C          C       0.44887   0.90645   0.03884 
C          C       0.06686   0.59364   0.20678 
C          C       0.06686   0.40636   0.20678 
C          C       0.06500   0.64617   0.09824 
C          C       0.06500   0.35383   0.09824 
C          C       0.11885   0.69711   0.06014 
C          C       0.11885   0.30289   0.06014 
C          C       0.12260   0.59459   0.27909 
C          C       0.12260   0.40541   0.27909 
C          C       0.17500   0.30355   0.13059 
C          C       0.17500   0.69645   0.13059 
C          C       0.17665   0.35477   0.24079 
C          C       0.17665   0.64523   0.24079 
C          C       0.23089   0.24995   0.08754 
C          C       0.23089   0.75005   0.08754 
C          C       0.00808   0.54341   0.24905 
C          C       0.00808   0.45659   0.24905 
H          H       0.01933   0.64756   0.04034 
H          H       0.01933   0.35244   0.04034 
H          H       0.11707   0.73941   0.47126 
H          H       0.11707   0.26059   0.47126 
H          H       0.12404   0.55390   0.36972 
H          H       0.12404   0.44610   0.36972 
H          H       0.22212   0.35516   0.29931 
H          H       0.22212   0.64484   0.29931 
H          H       0.29508   0.85631   0.43819 
H          H       0.29508   0.14369   0.43819 
H          H       0.39443   0.94663   0.37300 
H          H       0.39443   0.05337   0.37300 
H          H       0.49433   0.85217   0.20688 
H          H       0.49433   0.14783   0.20688 
H          H       0.39540   0.76034   0.27150 
H          H       0.39540   0.23966   0.27150 
C          C       0.83965   0.35545   0.24919 
C          C       0.83965   0.64455   0.24919 
C          C       0.89420   0.40576   0.21369 
C          C       0.89420   0.59424   0.21369 
C          C       0.94925   0.35362   0.39729 
C          C       0.94925   0.64638   0.39729 
C          C       0.89484   0.30287   0.43267 
C          C       0.89484   0.69713   0.43267 
C          C       0.83955   0.30390   0.35963 
C          C       0.83955   0.69610   0.35963 
C          C       0.78420   0.74792   0.39924 
C          C       0.78420   0.25208   0.39924 
C          C       0.94887   0.59355   0.28884 
C          C       0.94887   0.40645   0.28884 
C          C       0.56686   0.09364   0.45678 
C          C       0.56686   0.90636   0.45678 
C          C       0.56500   0.14617   0.34825 
C          C       0.56500   0.85383   0.34825 
C          C       0.61885   0.19711   0.31014 
C          C       0.61885   0.80289   0.31014 
C          C       0.62260   0.09459   0.02908 
C          C       0.62260   0.90541   0.02908 
C          C       0.67500   0.80355   0.38059 
C          C       0.67500   0.19645   0.38059 
C          C       0.67665   0.85477   0.49079 
C          C       0.67665   0.14523   0.49079 
N          N       0.73089   0.74995   0.33754 
N          N       0.73089   0.25005   0.33754 
C          C       0.50808   0.04341   0.49905 
C          C       0.50808   0.95659   0.49905 
H          H       0.51933   0.14756   0.29034 
H          H       0.51933   0.85244   0.29034 
H          H       0.61707   0.23941   0.22126 
H          H       0.61707   0.76059   0.22126 
H          H       0.62404   0.05390   0.11972 
H          H       0.62404   0.94610   0.11972 
H          H       0.72212   0.85516   0.04931 
H          H       0.72212   0.14484   0.04931 
H          H       0.79508   0.35631   0.18818 
H          H       0.79508   0.64369   0.18818 
H          H       0.89443   0.44663   0.12300 
H          H       0.89443   0.55337   0.12300 
H          H       0.99433   0.35217   0.45688 
H          H       0.99433   0.64783   0.45688 
H          H       0.89540   0.26034   0.02150 
H          H       0.89540   0.73966   0.02150 
H          H       0.22669   0.20938   0.49744 
H          H       0.22669   0.79062   0.49744 
H          H       0.78844   0.78857   0.48923 
H          H       0.78844   0.21143   0.48923 
C          C       0.33965   0.85545   0.99919 
C          C       0.33965   0.14455   0.99919 
C          C       0.39420   0.90576   0.96369 
C          C       0.39420   0.09424   0.96369 
C          C       0.44925   0.85362   0.64729 
C          C       0.44925   0.14638   0.64729 
C          C       0.39484   0.80287   0.68267 
C          C       0.39484   0.19713   0.68267 
C          C       0.33955   0.80390   0.60963 
C          C       0.33955   0.19610   0.60963 
N          N       0.28420   0.24792   0.64924 
N          N       0.28420   0.75208   0.64924 
C          C       0.44887   0.09355   0.53884 
C          C       0.44887   0.90645   0.53884 
C          C       0.06686   0.59364   0.70678 
C          C       0.06686   0.40636   0.70678 
C          C       0.06500   0.64617   0.59825 
C          C       0.06500   0.35383   0.59825 
C          C       0.11885   0.69711   0.56014 
C          C       0.11885   0.30289   0.56014 
C          C       0.12260   0.59459   0.77909 
C          C       0.12260   0.40541   0.77909 
C          C       0.17500   0.30355   0.63058 
C          C       0.17500   0.69645   0.63058 
C          C       0.17665   0.35477   0.74079 
C          C       0.17665   0.64523   0.74079 
C          C       0.23089   0.24995   0.58754 
C          C       0.23089   0.75005   0.58754 
C          C       0.00808   0.54341   0.74905 
C          C       0.00808   0.45659   0.74905 
H          H       0.01933   0.64756   0.54034 
H          H       0.01933   0.35244   0.54034 
H          H       0.11707   0.73941   0.97127 
H          H       0.11707   0.26059   0.97127 
H          H       0.12404   0.55390   0.86972 
H          H       0.12404   0.44610   0.86972 
H          H       0.22212   0.35516   0.79931 
H          H       0.22212   0.64484   0.79931 
H          H       0.29508   0.85631   0.93819 
H          H       0.29508   0.14369   0.93819 
H          H       0.39443   0.94663   0.87299 
H          H       0.39443   0.05337   0.87299 
H          H       0.49433   0.85217   0.70688 
H          H       0.49433   0.14783   0.70688 
H          H       0.39540   0.76034   0.77150 
H          H       0.39540   0.23966   0.77150 
C          C       0.83965   0.35545   0.74919 
C          C       0.83965   0.64455   0.74919 
C          C       0.89420   0.40576   0.71369 
C          C       0.89420   0.59424   0.71369 
C          C       0.94925   0.35362   0.89729 
C          C       0.94925   0.64638   0.89729 
C          C       0.89484   0.30287   0.93267 
C          C       0.89484   0.69713   0.93267 
C          C       0.83955   0.30390   0.85963 
C          C       0.83955   0.69610   0.85963 
C          C       0.78420   0.74792   0.89924 
C          C       0.78420   0.25208   0.89924 
C          C       0.94887   0.59355   0.78884 
C          C       0.94887   0.40645   0.78884 
C          C       0.56686   0.09364   0.95678 
C          C       0.56686   0.90636   0.95678 
C          C       0.56500   0.14617   0.84825 
C          C       0.56500   0.85383   0.84825 
C          C       0.61885   0.19711   0.81014 
C          C       0.61885   0.80289   0.81014 
C          C       0.62260   0.09459   0.52909 
C          C       0.62260   0.90541   0.52909 
C          C       0.67500   0.80355   0.88058 
C          C       0.67500   0.19645   0.88058 
C          C       0.67665   0.85477   0.99079 
C          C       0.67665   0.14523   0.99079 
N          N       0.73089   0.74995   0.83754 
N          N       0.73089   0.25005   0.83754 
C          C       0.50808   0.04341   0.99905 
C          C       0.50808   0.95659   0.99905 
H          H       0.51933   0.14756   0.79033 
H          H       0.51933   0.85244   0.79033 
H          H       0.61707   0.23941   0.72127 
H          H       0.61707   0.76059   0.72127 
H          H       0.62404   0.05390   0.61972 
H          H       0.62404   0.94610   0.61972 
H          H       0.72212   0.85516   0.54931 
H          H       0.72212   0.14484   0.54931 
H          H       0.79508   0.35631   0.68819 
H          H       0.79508   0.64369   0.68819 
H          H       0.89443   0.44663   0.62300 
H          H       0.89443   0.55337   0.62300 
H          H       0.99433   0.35217   0.95688 
H          H       0.99433   0.64783   0.95688 
H          H       0.89540   0.26034   0.52150 
H          H       0.89540   0.73966   0.52150 
H          H       0.22669   0.20938   0.99744 
H          H       0.22669   0.79062   0.99744 
H          H       0.78844   0.78857   0.98923 
H          H       0.78844   0.21143   0.98923 
