data_crystal

_cell_length_a    29.37290
_cell_length_b    29.37290
_cell_length_c    6.88400
_cell_angle_alpha 90.00000
_cell_angle_beta  90.00000
_cell_angle_gamma 120.00000

_space_group_name_Hall 'P 1'
_space_group_name_H-M_alt  'P 1'

loop_
_symmetry_equiv_pos_as_xyz
'x,y,z' 

loop_
_atom_site_label
_atom_site_type_symbol
_atom_site_fract_x
_atom_site_fract_y
_atom_site_fract_z
C          C       0.94608   0.46223   0.25061 
C          C       0.53777   0.48384   0.25065 
C          C       0.51616   0.05394   0.25060 
C          C       0.98427   0.44737   0.24471 
C          C       0.55263   0.53688   0.24485 
C          C       0.46311   0.01575   0.24480 
C          C       0.03744   0.48380   0.24316 
C          C       0.51621   0.55363   0.24324 
C          C       0.44637   0.96258   0.24321 
C          C       0.89092   0.41716   0.26613 
C          C       0.58284   0.47375   0.26613 
C          C       0.52623   0.10910   0.26609 
N          N       0.85540   0.42954   0.34461 
N          N       0.57047   0.42584   0.34457 
N          N       0.57416   0.14462   0.34462 
N          N       0.80526   0.39133   0.38044 
N          N       0.60869   0.41393   0.38038 
N          N       0.58607   0.19475   0.38042 
C          C       0.77549   0.40722   0.45983 
C          C       0.59279   0.36826   0.45981 
C          C       0.63175   0.22452   0.45985 
C          C       0.72048   0.36966   0.49117 
C          C       0.63036   0.35083   0.49116 
C          C       0.64919   0.27953   0.49118 
O          O       0.87874   0.37120   0.21876 
O          O       0.62881   0.50753   0.21876 
O          O       0.49248   0.12128   0.21876 
C          C       0.70269   0.31563   0.49469 
C          C       0.68439   0.38707   0.49466 
C          C       0.61295   0.29732   0.49470 
O          O       0.92432   0.53099   0.23681 
O          O       0.46901   0.39331   0.23676 
O          O       0.60669   0.07569   0.23680 
C          C       0.94109   0.58373   0.16742 
C          C       0.41628   0.35736   0.16725 
C          C       0.64264   0.05891   0.16730 
H          H       0.96979   0.40542   0.24356 
H          H       0.59459   0.56436   0.24382 
H          H       0.43564   0.03023   0.24375 
H          H       0.86778   0.46810   0.38434 
H          H       0.53192   0.39968   0.38433 
H          H       0.60033   0.13225   0.38436 
H          H       0.78987   0.44896   0.49200 
H          H       0.55106   0.34090   0.49202 
H          H       0.65911   0.21014   0.49204 
H          H       0.69759   0.42889   0.49049 
H          H       0.57113   0.26871   0.49055 
H          H       0.73131   0.30243   0.49056 
C          C       0.05394   0.53775   0.25078 
C          C       0.46224   0.51617   0.25070 
C          C       0.48382   0.94607   0.25066 
C          C       0.01576   0.55261   0.24505 
C          C       0.44739   0.46313   0.24494 
C          C       0.53686   0.98426   0.24492 
C          C       0.96260   0.51620   0.24331 
C          C       0.48381   0.44638   0.24327 
C          C       0.55361   0.03742   0.24326 
C          C       0.10911   0.58282   0.26617 
C          C       0.41717   0.52626   0.26617 
C          C       0.47373   0.89091   0.26608 
O          O       0.12131   0.62878   0.21874 
O          O       0.37120   0.49249   0.21879 
O          O       0.50750   0.87871   0.21870 
N          N       0.14464   0.57044   0.34452 
N          N       0.42955   0.57417   0.34463 
N          N       0.42582   0.85537   0.34447 
N          N       0.19477   0.60867   0.38035 
N          N       0.39133   0.58607   0.38047 
N          N       0.41391   0.80525   0.38029 
C          C       0.22454   0.59278   0.45981 
C          C       0.40723   0.63175   0.45989 
C          C       0.36825   0.77547   0.45975 
C          C       0.27953   0.63035   0.49118 
C          C       0.36965   0.64918   0.49123 
C          C       0.35083   0.72048   0.49113 
C          C       0.29732   0.68438   0.49463 
C          C       0.31563   0.61294   0.49474 
C          C       0.38706   0.70268   0.49469 
O          O       0.07571   0.46899   0.23661 
O          O       0.53100   0.60670   0.23672 
O          O       0.39330   0.92430   0.23670 
C          C       0.05893   0.41627   0.16698 
C          C       0.58374   0.64265   0.16720 
C          C       0.35736   0.94109   0.16709 
H          H       0.03024   0.59458   0.24425 
H          H       0.40543   0.43565   0.24400 
H          H       0.56434   0.96977   0.24400 
H          H       0.13226   0.53190   0.38437 
H          H       0.46809   0.60034   0.38442 
H          H       0.39964   0.86774   0.38429 
H          H       0.21018   0.55104   0.49205 
H          H       0.44896   0.65912   0.49206 
H          H       0.34087   0.78983   0.49194 
H          H       0.30241   0.57112   0.49056 
H          H       0.42888   0.73129   0.49049 
H          H       0.26871   0.69759   0.49039 
C          C       0.58533   0.69347   0.10926 
C          C       0.30653   0.89187   0.10912 
C          C       0.10814   0.41466   0.10899 
C          C       0.64088   0.73703   0.05178 
C          C       0.26297   0.90387   0.05169 
C          C       0.09614   0.35911   0.05159 
C          C       0.41468   0.30654   0.10930 
C          C       0.69346   0.10814   0.10937 
C          C       0.89186   0.58532   0.10949 
C          C       0.35913   0.26297   0.05180 
C          C       0.73703   0.09616   0.05185 
C          C       0.90384   0.64086   0.05192 
H          H       0.96739   0.59233   0.04333 
H          H       0.40770   0.37507   0.04316 
H          H       0.62494   0.03263   0.04319 
H          H       0.96348   0.61299   0.27970 
H          H       0.38700   0.35048   0.27949 
H          H       0.64952   0.03651   0.27953 
H          H       0.03264   0.40773   0.04290 
H          H       0.59231   0.62493   0.04310 
H          H       0.37510   0.96738   0.04300 
H          H       0.03651   0.38697   0.27912 
H          H       0.61302   0.64953   0.27942 
H          H       0.35047   0.96350   0.27926 
H          H       0.57055   0.70736   0.22761 
H          H       0.29264   0.86319   0.22743 
H          H       0.13683   0.42946   0.22728 
H          H       0.55768   0.68445   0.48944 
H          H       0.31555   0.87325   0.48925 
H          H       0.12676   0.44229   0.48912 
H          H       0.65992   0.72201   0.45493 
H          H       0.27798   0.93793   0.45482 
H          H       0.06208   0.34005   0.45476 
H          H       0.66634   0.75351   0.17826 
H          H       0.24650   0.91284   0.17819 
H          H       0.08716   0.33366   0.17810 
H          H       0.63941   0.76927   0.47782 
H          H       0.23073   0.87015   0.47774 
H          H       0.12985   0.36056   0.47765 
H          H       0.42946   0.29265   0.22765 
H          H       0.70735   0.13680   0.22774 
H          H       0.86321   0.57056   0.22789 
H          H       0.44234   0.31556   0.48949 
H          H       0.68444   0.12678   0.48957 
H          H       0.87321   0.55765   0.48972 
H          H       0.36062   0.23073   0.47784 
H          H       0.76927   0.12989   0.47789 
H          H       0.87012   0.63937   0.47795 
H          H       0.34009   0.27798   0.45494 
H          H       0.72201   0.06210   0.45498 
H          H       0.93790   0.65990   0.45508 
H          H       0.33368   0.24649   0.17829 
H          H       0.75352   0.08719   0.17833 
H          H       0.91282   0.66633   0.17837 
C          C       0.94608   0.46223   0.75061 
C          C       0.53777   0.48384   0.75065 
C          C       0.51616   0.05394   0.75060 
C          C       0.98427   0.44737   0.74471 
C          C       0.55263   0.53688   0.74484 
C          C       0.46311   0.01575   0.74479 
C          C       0.03744   0.48380   0.74316 
C          C       0.51621   0.55363   0.74324 
C          C       0.44637   0.96258   0.74321 
C          C       0.89092   0.41716   0.76612 
C          C       0.58284   0.47375   0.76613 
C          C       0.52623   0.10910   0.76609 
N          N       0.85540   0.42954   0.84461 
N          N       0.57047   0.42584   0.84457 
N          N       0.57416   0.14462   0.84462 
N          N       0.80526   0.39133   0.88044 
N          N       0.60869   0.41393   0.88038 
N          N       0.58607   0.19475   0.88042 
C          C       0.77549   0.40722   0.95983 
C          C       0.59279   0.36826   0.95981 
C          C       0.63175   0.22452   0.95985 
C          C       0.72048   0.36966   0.99117 
C          C       0.63036   0.35083   0.99116 
C          C       0.64919   0.27953   0.99118 
O          O       0.87874   0.37120   0.71876 
O          O       0.62881   0.50753   0.71876 
O          O       0.49248   0.12128   0.71876 
C          C       0.70269   0.31563   0.99469 
C          C       0.68439   0.38707   0.99465 
C          C       0.61295   0.29732   0.99470 
O          O       0.92432   0.53099   0.73681 
O          O       0.46901   0.39331   0.73676 
O          O       0.60669   0.07569   0.73680 
C          C       0.94109   0.58373   0.66742 
C          C       0.41628   0.35736   0.66726 
C          C       0.64264   0.05891   0.66730 
H          H       0.96979   0.40542   0.74356 
H          H       0.59459   0.56436   0.74382 
H          H       0.43564   0.03023   0.74376 
H          H       0.86778   0.46810   0.88434 
H          H       0.53192   0.39968   0.88433 
H          H       0.60033   0.13225   0.88436 
H          H       0.78987   0.44896   0.99200 
H          H       0.55106   0.34090   0.99202 
H          H       0.65911   0.21014   0.99204 
H          H       0.69759   0.42889   0.99049 
H          H       0.57113   0.26871   0.99055 
H          H       0.73131   0.30243   0.99056 
C          C       0.05394   0.53775   0.75077 
C          C       0.46224   0.51617   0.75070 
C          C       0.48382   0.94607   0.75066 
C          C       0.01576   0.55261   0.74506 
C          C       0.44739   0.46313   0.74494 
C          C       0.53686   0.98426   0.74492 
C          C       0.96260   0.51620   0.74332 
C          C       0.48381   0.44638   0.74327 
C          C       0.55361   0.03742   0.74326 
C          C       0.10911   0.58282   0.76617 
C          C       0.41717   0.52626   0.76617 
C          C       0.47373   0.89091   0.76608 
O          O       0.12131   0.62878   0.71874 
O          O       0.37120   0.49249   0.71879 
O          O       0.50750   0.87871   0.71870 
N          N       0.14464   0.57044   0.84452 
N          N       0.42955   0.57417   0.84462 
N          N       0.42582   0.85537   0.84446 
N          N       0.19477   0.60867   0.88036 
N          N       0.39133   0.58607   0.88047 
N          N       0.41391   0.80525   0.88029 
C          C       0.22454   0.59278   0.95981 
C          C       0.40723   0.63175   0.95989 
C          C       0.36825   0.77547   0.95975 
C          C       0.27953   0.63035   0.99118 
C          C       0.36965   0.64918   0.99123 
C          C       0.35083   0.72048   0.99114 
C          C       0.29732   0.68438   0.99463 
C          C       0.31563   0.61294   0.99474 
C          C       0.38706   0.70268   0.99469 
O          O       0.07571   0.46899   0.73661 
O          O       0.53100   0.60670   0.73672 
O          O       0.39330   0.92430   0.73670 
C          C       0.05893   0.41627   0.66698 
C          C       0.58374   0.64265   0.66720 
C          C       0.35736   0.94109   0.66709 
H          H       0.03024   0.59458   0.74425 
H          H       0.40543   0.43565   0.74400 
H          H       0.56434   0.96977   0.74400 
H          H       0.13226   0.53190   0.88436 
H          H       0.46809   0.60034   0.88442 
H          H       0.39964   0.86774   0.88429 
H          H       0.21018   0.55104   0.99205 
H          H       0.44896   0.65912   0.99206 
H          H       0.34087   0.78983   0.99194 
H          H       0.30241   0.57112   0.99056 
H          H       0.42888   0.73129   0.99049 
H          H       0.26871   0.69759   0.99039 
C          C       0.58533   0.69347   0.60926 
C          C       0.30653   0.89187   0.60912 
C          C       0.10814   0.41466   0.60899 
C          C       0.64088   0.73703   0.55178 
C          C       0.26297   0.90387   0.55168 
C          C       0.09614   0.35911   0.55159 
C          C       0.41468   0.30654   0.60930 
C          C       0.69346   0.10814   0.60937 
C          C       0.89186   0.58532   0.60949 
C          C       0.35913   0.26297   0.55180 
C          C       0.73703   0.09616   0.55184 
C          C       0.90384   0.64086   0.55192 
H          H       0.96739   0.59233   0.54333 
H          H       0.40770   0.37507   0.54316 
H          H       0.62494   0.03263   0.54319 
H          H       0.96348   0.61299   0.77970 
H          H       0.38700   0.35048   0.77949 
H          H       0.64952   0.03651   0.77953 
H          H       0.03264   0.40773   0.54290 
H          H       0.59231   0.62493   0.54311 
H          H       0.37510   0.96738   0.54300 
H          H       0.03651   0.38697   0.77912 
H          H       0.61302   0.64953   0.77942 
H          H       0.35047   0.96350   0.77926 
H          H       0.57055   0.70736   0.72761 
H          H       0.29264   0.86319   0.72743 
H          H       0.13683   0.42946   0.72728 
H          H       0.55768   0.68445   0.98944 
H          H       0.31555   0.87325   0.98925 
H          H       0.12676   0.44229   0.98911 
H          H       0.65992   0.72201   0.95493 
H          H       0.27798   0.93793   0.95482 
H          H       0.06208   0.34005   0.95476 
H          H       0.66634   0.75351   0.67826 
H          H       0.24650   0.91284   0.67819 
H          H       0.08716   0.33366   0.67810 
H          H       0.63941   0.76927   0.97782 
H          H       0.23073   0.87015   0.97774 
H          H       0.12985   0.36056   0.97765 
H          H       0.42946   0.29265   0.72765 
H          H       0.70735   0.13680   0.72774 
H          H       0.86321   0.57056   0.72789 
H          H       0.44234   0.31556   0.98949 
H          H       0.68444   0.12678   0.98957 
H          H       0.87321   0.55765   0.98972 
H          H       0.36062   0.23073   0.97784 
H          H       0.76927   0.12989   0.97789 
H          H       0.87012   0.63937   0.97795 
H          H       0.34009   0.27798   0.95494 
H          H       0.72201   0.06210   0.95498 
H          H       0.93790   0.65990   0.95508 
H          H       0.33368   0.24649   0.67829 
H          H       0.75352   0.08719   0.67832 
H          H       0.91282   0.66633   0.67837 
