data_crystal

_cell_length_a    29.35090
_cell_length_b    29.35090
_cell_length_c    6.87140
_cell_angle_alpha 90.00000
_cell_angle_beta  90.00000
_cell_angle_gamma 120.00000

_space_group_name_Hall 'P 1'
_space_group_name_H-M_alt  'P 1'

loop_
_symmetry_equiv_pos_as_xyz
'x,y,z' 

loop_
_atom_site_label
_atom_site_type_symbol
_atom_site_fract_x
_atom_site_fract_y
_atom_site_fract_z
C          C       0.51435   0.97155   0.26943 
C          C       0.50882   0.91787   0.25188 
N          N       0.46105   0.88112   0.17407 
N          N       0.44542   0.82904   0.16853 
C          C       0.39649   0.79825   0.13223 
C          C       0.37422   0.74170   0.14101 
O          O       0.54401   0.90965   0.29556 
C          C       0.40642   0.71930   0.12183 
O          O       0.42504   0.93979   0.36678 
C          C       0.38349   0.94982   0.42479 
H          H       0.43369   0.89197   0.15180 
H          H       0.36944   0.81323   0.10958 
H          H       0.44728   0.74431   0.08436 
C          C       0.48515   0.03362   0.33551 
C          C       0.47421   0.98196   0.32342 
H          H       0.45579   0.04352   0.37613 
C          C       0.33547   0.89771   0.46743 
C          C       0.29221   0.89221   0.04970 
H          H       0.37596   0.97028   0.30814 
H          H       0.39657   0.97604   0.04950 
H          H       0.33746   0.86365   0.42012 
H          H       0.25825   0.85401   0.07302 
H          H       0.28897   0.92563   0.09608 
C          C       0.07711   0.56634   0.48061 
C          C       0.12775   0.61507   0.42281 
N          N       0.16870   0.60548   0.39616 
N          N       0.21625   0.64162   0.32459 
C          C       0.24787   0.62395   0.29663 
C          C       0.30111   0.65681   0.22849 
O          O       0.13028   0.65687   0.39138 
C          C       0.32151   0.71044   0.18907 
O          O       0.11401   0.51235   0.07483 
C          C       0.10803   0.46337   0.14727 
H          H       0.16237   0.56912   0.42848 
H          H       0.23593   0.58302   0.32908 
C          C       0.02009   0.47613   0.07919 
C          C       0.07020   0.51759   0.04460 
H          H       0.01314   0.43853   0.12945 
H          H       0.08671   0.43230   0.04073 
H          H       0.08429   0.45229   0.27823 
C          C       0.16230   0.47196   0.18349 
C          C       0.17237   0.43736   0.26754 
H          H       0.19414   0.50908   0.13245 
H          H       0.21213   0.44553   0.28875 
H          H       0.14146   0.39972   0.31890 
H          H       0.29632   0.72723   0.20448 
C          C       0.48484   0.53334   0.27574 
C          C       0.47851   0.48482   0.22248 
C          C       0.52106   0.47663   0.21618 
C          C       0.43533   0.53646   0.28178 
N          N       0.44241   0.58261   0.20269 
N          N       0.40594   0.59795   0.21412 
C          C       0.42032   0.64389   0.14597 
C          C       0.38603   0.66598   0.15680 
O          O       0.39449   0.50126   0.34762 
C          C       0.33325   0.63483   0.21158 
H          H       0.43935   0.45459   0.18460 
H          H       0.47781   0.60747   0.14205 
H          H       0.45924   0.66845   0.08233 
O          O       0.51621   0.42912   0.15941 
C          C       0.46547   0.38725   0.08994 
H          H       0.45251   0.40350   0.47464 
H          H       0.43619   0.37398   0.20512 
C          C       0.47322   0.34344   0.01939 
C          C       0.44140   0.29302   0.06031 
H          H       0.50612   0.35481   0.42266 
H          H       0.31826   0.59376   0.24372 
C          C       0.53523   0.07562   0.29777 
C          C       0.54072   0.12934   0.31429 
N          N       0.58923   0.16673   0.38464 
N          N       0.60533   0.21893   0.38496 
C          C       0.65460   0.24963   0.41531 
C          C       0.67751   0.30624   0.40262 
O          O       0.50503   0.13720   0.27487 
C          C       0.64617   0.32957   0.42308 
O          O       0.62449   0.10726   0.20152 
C          C       0.66625   0.09823   0.13748 
H          H       0.61669   0.15593   0.40516 
H          H       0.68145   0.23436   0.43692 
H          H       0.60540   0.30531   0.46340 
C          C       0.56442   0.01352   0.23145 
C          C       0.57533   0.06513   0.24377 
H          H       0.59390   0.00382   0.19033 
C          C       0.71331   0.15117   0.09461 
C          C       0.75730   0.15861   0.01229 
H          H       0.67496   0.07775   0.25075 
H          H       0.65291   0.07250   0.01140 
H          H       0.70968   0.18441   0.14077 
H          H       0.79005   0.19755   0.48790 
H          H       0.76247   0.12631   0.46609 
C          C       0.97542   0.48064   0.05643 
C          C       0.92544   0.43246   0.12342 
N          N       0.88295   0.44010   0.13455 
N          N       0.83613   0.40462   0.21443 
C          C       0.80415   0.42216   0.23636 
C          C       0.75122   0.39023   0.30932 
O          O       0.92479   0.39263   0.17499 
C          C       0.73011   0.33664   0.35129 
O          O       0.93819   0.53378   0.45820 
C          C       0.94329   0.58263   0.38857 
H          H       0.88807   0.47532   0.09129 
H          H       0.81561   0.46248   0.19523 
C          C       0.03240   0.57075   0.45559 
C          C       0.98224   0.52914   0.48977 
H          H       0.03923   0.60832   0.40507 
H          H       0.96457   0.61353   0.49572 
H          H       0.96676   0.59434   0.25694 
C          C       0.88864   0.57339   0.35542 
C          C       0.87762   0.60739   0.27177 
H          H       0.85725   0.53633   0.40903 
H          H       0.83761   0.59874   0.25385 
H          H       0.90787   0.64504   0.21793 
H          H       0.75461   0.31907   0.33570 
C          C       0.57127   0.51799   0.26689 
C          C       0.57763   0.56657   0.32033 
C          C       0.53503   0.57478   0.32597 
C          C       0.62035   0.51407   0.26114 
N          N       0.61257   0.46777   0.34124 
N          N       0.64852   0.45179   0.32924 
C          C       0.63384   0.40596   0.39918 
C          C       0.66731   0.38294   0.38662 
O          O       0.66141   0.54841   0.19357 
C          C       0.71990   0.41312   0.32809 
H          H       0.61667   0.59684   0.35959 
H          H       0.57733   0.44353   0.40427 
H          H       0.59511   0.38209   0.46520 
O          O       0.53955   0.62221   0.38169 
C          C       0.59001   0.66461   0.45045 
H          H       0.60333   0.64887   0.06634 
H          H       0.61925   0.67807   0.33508 
C          C       0.58155   0.70812   0.01982 
C          C       0.61297   0.75862   0.47931 
H          H       0.54832   0.69640   0.11525 
H          H       0.64670   0.77181   0.38562 
H          H       0.60597   0.78852   0.03907 
H          H       0.73538   0.45420   0.29466 
C          C       0.51435   0.97155   0.76943 
C          C       0.50882   0.91787   0.75188 
N          N       0.46105   0.88112   0.67407 
N          N       0.44542   0.82904   0.66854 
C          C       0.39649   0.79825   0.63223 
C          C       0.37422   0.74170   0.64101 
O          O       0.54401   0.90965   0.79556 
C          C       0.40642   0.71930   0.62182 
O          O       0.42504   0.93979   0.86677 
C          C       0.38349   0.94982   0.92479 
H          H       0.43369   0.89197   0.65181 
H          H       0.36944   0.81323   0.60958 
H          H       0.44728   0.74431   0.58436 
C          C       0.48515   0.03362   0.83551 
C          C       0.47421   0.98196   0.82342 
H          H       0.45579   0.04352   0.87613 
C          C       0.33547   0.89771   0.96743 
C          C       0.29221   0.89221   0.54970 
H          H       0.37596   0.97028   0.80814 
H          H       0.39657   0.97604   0.54949 
H          H       0.33746   0.86365   0.92012 
H          H       0.25825   0.85401   0.57302 
H          H       0.28897   0.92563   0.59608 
C          C       0.07711   0.56634   0.98061 
C          C       0.12775   0.61507   0.92282 
N          N       0.16870   0.60548   0.89616 
N          N       0.21625   0.64162   0.82459 
C          C       0.24787   0.62395   0.79663 
C          C       0.30111   0.65681   0.72849 
O          O       0.13028   0.65687   0.89138 
C          C       0.32151   0.71044   0.68906 
O          O       0.11401   0.51235   0.57483 
C          C       0.10803   0.46337   0.64728 
H          H       0.16237   0.56912   0.92848 
H          H       0.23593   0.58302   0.82908 
C          C       0.02009   0.47613   0.57919 
C          C       0.07020   0.51759   0.54461 
H          H       0.01314   0.43853   0.62945 
H          H       0.08671   0.43230   0.54073 
H          H       0.08429   0.45229   0.77823 
C          C       0.16230   0.47196   0.68349 
C          C       0.17237   0.43736   0.76755 
H          H       0.19414   0.50908   0.63245 
H          H       0.21213   0.44553   0.78875 
H          H       0.14146   0.39972   0.81890 
H          H       0.29632   0.72723   0.70448 
C          C       0.48484   0.53334   0.77574 
C          C       0.47851   0.48482   0.72248 
C          C       0.52106   0.47663   0.71618 
C          C       0.43533   0.53646   0.78178 
N          N       0.44241   0.58261   0.70269 
N          N       0.40594   0.59795   0.71412 
C          C       0.42032   0.64389   0.64597 
C          C       0.38603   0.66598   0.65680 
O          O       0.39449   0.50126   0.84762 
C          C       0.33325   0.63483   0.71158 
H          H       0.43935   0.45459   0.68460 
H          H       0.47781   0.60747   0.64205 
H          H       0.45924   0.66845   0.58232 
O          O       0.51621   0.42912   0.65941 
C          C       0.46547   0.38725   0.58994 
H          H       0.45251   0.40350   0.97464 
H          H       0.43619   0.37398   0.70512 
C          C       0.47322   0.34344   0.51939 
C          C       0.44140   0.29302   0.56031 
H          H       0.50612   0.35481   0.92266 
H          H       0.31826   0.59376   0.74372 
C          C       0.53523   0.07562   0.79777 
C          C       0.54072   0.12934   0.81429 
N          N       0.58923   0.16673   0.88464 
N          N       0.60533   0.21893   0.88496 
C          C       0.65460   0.24963   0.91531 
C          C       0.67751   0.30624   0.90262 
O          O       0.50503   0.13720   0.77487 
C          C       0.64617   0.32957   0.92308 
O          O       0.62449   0.10726   0.70152 
C          C       0.66625   0.09823   0.63748 
H          H       0.61669   0.15593   0.90516 
H          H       0.68145   0.23436   0.93692 
H          H       0.60540   0.30531   0.96340 
C          C       0.56442   0.01352   0.73145 
C          C       0.57533   0.06513   0.74377 
H          H       0.59390   0.00382   0.69033 
C          C       0.71331   0.15117   0.59461 
C          C       0.75730   0.15861   0.51229 
H          H       0.67496   0.07775   0.75075 
H          H       0.65291   0.07250   0.51140 
H          H       0.70968   0.18441   0.64077 
H          H       0.79005   0.19755   0.98790 
H          H       0.76247   0.12631   0.96609 
C          C       0.97542   0.48064   0.55643 
C          C       0.92544   0.43246   0.62342 
N          N       0.88295   0.44010   0.63455 
N          N       0.83613   0.40462   0.71443 
C          C       0.80415   0.42216   0.73637 
C          C       0.75122   0.39023   0.80932 
O          O       0.92479   0.39263   0.67499 
C          C       0.73011   0.33664   0.85129 
O          O       0.93819   0.53378   0.95820 
C          C       0.94329   0.58263   0.88857 
H          H       0.88807   0.47532   0.59129 
H          H       0.81561   0.46248   0.69524 
C          C       0.03240   0.57075   0.95559 
C          C       0.98224   0.52914   0.98977 
H          H       0.03923   0.60832   0.90507 
H          H       0.96457   0.61353   0.99572 
H          H       0.96676   0.59434   0.75694 
C          C       0.88864   0.57339   0.85542 
C          C       0.87762   0.60739   0.77178 
H          H       0.85725   0.53633   0.90903 
H          H       0.83761   0.59874   0.75385 
H          H       0.90787   0.64504   0.71793 
H          H       0.75461   0.31907   0.83570 
C          C       0.57127   0.51799   0.76689 
C          C       0.57763   0.56657   0.82033 
C          C       0.53503   0.57478   0.82597 
C          C       0.62035   0.51407   0.76114 
N          N       0.61257   0.46777   0.84124 
N          N       0.64852   0.45179   0.82924 
C          C       0.63384   0.40596   0.89918 
C          C       0.66731   0.38294   0.88662 
O          O       0.66141   0.54841   0.69357 
C          C       0.71990   0.41312   0.82809 
H          H       0.61667   0.59684   0.85959 
H          H       0.57733   0.44353   0.90427 
H          H       0.59511   0.38209   0.96520 
O          O       0.53955   0.62221   0.88169 
C          C       0.59001   0.66461   0.95044 
H          H       0.60333   0.64887   0.56634 
H          H       0.61925   0.67807   0.83508 
C          C       0.58155   0.70812   0.51982 
C          C       0.61297   0.75862   0.97931 
H          H       0.54832   0.69640   0.61525 
H          H       0.64670   0.77181   0.88562 
H          H       0.60597   0.78852   0.53907 
H          H       0.73538   0.45420   0.79466 
H          H       0.44937   0.26495   0.00610 
H          H       0.40867   0.28186   0.14636 
H          H       0.44937   0.26495   0.50610 
H          H       0.40867   0.28186   0.64636 
