data_crystal
 
_cell_length_a    41.10200
_cell_length_b    32.40360
_cell_length_c    9.34000
_cell_angle_alpha 90.00000
_cell_angle_beta  90.00000
_cell_angle_gamma 90.00000
 
_space_group_name_Hall 'P 1'
_space_group_name_H-M_alt  'P 1'
 
loop_
_symmetry_equiv_pos_as_xyz
 'x,y,z' 
 
loop_
_atom_site_label
_atom_site_type_symbol
_atom_site_fract_x
_atom_site_fract_y
_atom_site_fract_z
C          C       0.36479   0.36757   0.34909 
C          C       0.63521   0.63243   0.34909 
C          C       0.63521   0.36757   0.15091 
C          C       0.36479   0.63243   0.15091 
C          C       0.13521   0.13243   0.15091 
C          C       0.86479   0.86757   0.15091 
C          C       0.86479   0.13243   0.34909 
C          C       0.13521   0.86757   0.34909 
C          C       0.39294   0.39285   0.35545 
C          C       0.60706   0.60715   0.35545 
C          C       0.60706   0.39285   0.14455 
C          C       0.39294   0.60715   0.14455 
C          C       0.10706   0.10715   0.14455 
C          C       0.89294   0.89285   0.14455 
C          C       0.89294   0.10715   0.35545 
C          C       0.10706   0.89285   0.35545 
H          H       0.34964   0.36912   0.25436 
H          H       0.65036   0.63088   0.25436 
H          H       0.65036   0.36912   0.24564 
H          H       0.34964   0.63088   0.24564 
H          H       0.15036   0.13088   0.24564 
H          H       0.84964   0.86912   0.24564 
H          H       0.84964   0.13088   0.25436 
H          H       0.15036   0.86912   0.25436 
H          H       0.39808   0.41306   0.26584 
H          H       0.60192   0.58694   0.26584 
H          H       0.60192   0.41306   0.23416 
H          H       0.39808   0.58694   0.23416 
H          H       0.10192   0.08694   0.23416 
H          H       0.89808   0.91306   0.23416 
H          H       0.89808   0.08694   0.26584 
H          H       0.10192   0.91306   0.26584 
C          C       0.87662   0.84086   0.41653 
C          C       0.12338   0.15914   0.41653 
C          C       0.12338   0.84086   0.08347 
C          C       0.87662   0.15914   0.08347 
C          C       0.62338   0.65914   0.08347 
C          C       0.37662   0.34086   0.08347 
C          C       0.37662   0.65914   0.41653 
C          C       0.62338   0.34086   0.41653 
C          C       0.90534   0.86589   0.41113 
C          C       0.09466   0.13411   0.41113 
C          C       0.09466   0.86589   0.08887 
C          C       0.90534   0.13411   0.08887 
C          C       0.59466   0.63411   0.08887 
C          C       0.40534   0.36589   0.08887 
C          C       0.40534   0.63411   0.41113 
C          C       0.59466   0.36589   0.41113 
H          H       0.87112   0.82157   0.32530 
H          H       0.12888   0.17843   0.32530 
H          H       0.12888   0.82157   0.17470 
H          H       0.87112   0.17843   0.17470 
H          H       0.62888   0.67843   0.17470 
H          H       0.37112   0.32157   0.17470 
H          H       0.37112   0.67843   0.32530 
H          H       0.62888   0.32157   0.32530 
H          H       0.92007   0.86523   0.31504 
H          H       0.07993   0.13477   0.31504 
H          H       0.07993   0.86523   0.18496 
H          H       0.92007   0.13477   0.18496 
H          H       0.57993   0.63477   0.18496 
H          H       0.42007   0.36523   0.18496 
H          H       0.42007   0.63477   0.31504 
H          H       0.57993   0.36523   0.31504 
N          N       0.17350   0.18078   0.04834 
N          N       0.82650   0.81922   0.04834 
N          N       0.82650   0.18078   0.45166 
N          N       0.17350   0.81922   0.45166 
N          N       0.32650   0.31922   0.45166 
N          N       0.67350   0.68078   0.45166 
N          N       0.67350   0.31922   0.04834 
N          N       0.32650   0.68078   0.04834 
C          C       0.18863   0.20689   0.45200 
C          C       0.81137   0.79311   0.45200 
C          C       0.81137   0.20689   0.04800 
C          C       0.18863   0.79311   0.04800 
C          C       0.31137   0.29311   0.04800 
C          C       0.68863   0.70689   0.04800 
C          C       0.68863   0.29311   0.45200 
C          C       0.31137   0.70689   0.45200 
C          C       0.21920   0.22804   0.47843 
C          C       0.78080   0.77196   0.47843 
C          C       0.78080   0.22804   0.02157 
C          C       0.21920   0.77196   0.02157 
C          C       0.28080   0.27196   0.02157 
C          C       0.71920   0.72804   0.02157 
C          C       0.71920   0.27196   0.47843 
C          C       0.28080   0.72804   0.47843 
C          C       0.23675   0.22511   0.10822 
C          C       0.76325   0.77489   0.10822 
C          C       0.76325   0.22511   0.39178 
C          C       0.23675   0.77489   0.39178 
C          C       0.26325   0.27489   0.39178 
C          C       0.73675   0.72511   0.39178 
C          C       0.73675   0.27489   0.10822 
C          C       0.26325   0.72511   0.10822 
C          C       0.23330   0.25350   0.37101 
C          C       0.76670   0.74650   0.37101 
C          C       0.76670   0.25350   0.12899 
C          C       0.23330   0.74650   0.12899 
C          C       0.26670   0.24650   0.12899 
C          C       0.73330   0.75350   0.12899 
C          C       0.73330   0.24650   0.37101 
C          C       0.26670   0.75350   0.37101 
C          C       0.47325   0.41255   0.49716 
C          C       0.52675   0.58745   0.49716 
C          C       0.52675   0.41255   0.00284 
C          C       0.47325   0.58745   0.00284 
C          C       0.02675   0.08745   0.00284 
C          C       0.97325   0.91255   0.00284 
C          C       0.97325   0.08745   0.49716 
C          C       0.02675   0.91255   0.49716 
C          C       0.41389   0.39321   0.47593 
C          C       0.58611   0.60679   0.47593 
C          C       0.58611   0.39321   0.02407 
C          C       0.41389   0.60679   0.02407 
C          C       0.08611   0.10679   0.02407 
C          C       0.91389   0.89321   0.02407 
C          C       0.91389   0.10679   0.47593 
C          C       0.08611   0.89321   0.47593 
C          C       0.43990   0.42410   0.48872 
C          C       0.56010   0.57590   0.48872 
C          C       0.56010   0.42410   0.01128 
C          C       0.43990   0.57590   0.01128 
C          C       0.06010   0.07590   0.01128 
C          C       0.93990   0.92410   0.01128 
C          C       0.93990   0.07590   0.48872 
C          C       0.06010   0.92410   0.48872 
C          C       0.35542   0.34159   0.46320 
C          C       0.64458   0.65841   0.46320 
C          C       0.64458   0.34159   0.03680 
C          C       0.35542   0.65841   0.03680 
C          C       0.14458   0.15841   0.03680 
C          C       0.85542   0.84159   0.03680 
C          C       0.85542   0.15841   0.46320 
C          C       0.14458   0.84159   0.46320 
C          C       0.43125   0.46638   0.49217 
C          C       0.56875   0.53362   0.49217 
C          C       0.56875   0.46638   0.00783 
C          C       0.43125   0.53362   0.00783 
C          C       0.06875   0.03362   0.00783 
C          C       0.93125   0.96638   0.00783 
C          C       0.93125   0.03362   0.49217 
C          C       0.06875   0.96638   0.49217 
C          C       0.48297   0.37167   0.49746 
C          C       0.51703   0.62833   0.49746 
C          C       0.51703   0.37167   0.00254 
C          C       0.48297   0.62833   0.00254 
C          C       0.01703   0.12833   0.00254 
C          C       0.98297   0.87167   0.00254 
C          C       0.98297   0.12833   0.49746 
C          C       0.01703   0.87167   0.49746 
C          C       0.39899   0.47868   0.49630 
C          C       0.60101   0.52132   0.49630 
C          C       0.60101   0.47868   0.00370 
C          C       0.39899   0.52132   0.00370 
C          C       0.10101   0.02132   0.00370 
C          C       0.89899   0.97868   0.00370 
C          C       0.89899   0.02132   0.49630 
C          C       0.10101   0.97868   0.49630 
H          H       0.17732   0.21172   0.34875 
H          H       0.82268   0.78828   0.34875 
H          H       0.82268   0.21172   0.15125 
H          H       0.17732   0.78828   0.15125 
H          H       0.32268   0.28828   0.15125 
H          H       0.67732   0.71172   0.15125 
H          H       0.67732   0.28828   0.34875 
H          H       0.32268   0.71172   0.34875 
H          H       0.22738   0.20629   0.19474 
H          H       0.77262   0.79371   0.19474 
H          H       0.77262   0.20629   0.30526 
H          H       0.22738   0.79371   0.30526 
H          H       0.27262   0.29371   0.30526 
H          H       0.72738   0.70629   0.30526 
H          H       0.72738   0.29371   0.19474 
H          H       0.27262   0.70629   0.19474 
H          H       0.22108   0.25695   0.26893 
H          H       0.77892   0.74305   0.26893 
H          H       0.77892   0.25695   0.23107 
H          H       0.22108   0.74305   0.23107 
H          H       0.27892   0.24305   0.23107 
H          H       0.72108   0.75695   0.23107 
H          H       0.72108   0.24305   0.26893 
H          H       0.27892   0.75695   0.26893 
H          H       0.46774   0.34447   0.49358 
H          H       0.53226   0.65553   0.49358 
H          H       0.53226   0.34447   0.00642 
H          H       0.46774   0.65553   0.00642 
H          H       0.03226   0.15553   0.00642 
H          H       0.96657   0.84297   0.00660 
H          H       0.96774   0.15553   0.49358 
H          H       0.03226   0.84447   0.49358 
N          N       0.45171   0.50000   0.00000 
N          N       0.54829   0.50000   0.00000 
N          N       0.04829   0.00000   0.00000 
N          N       0.95171   0.00000   0.00000 
Co         Co      0.50000   0.50000   0.00000 
Co         Co      0.00000   0.00000   0.00000 
N          N       0.50000   0.56156   0.00000 
N          N       0.50000   0.43844   0.00000 
N          N      -0.00000   0.93844   0.00000 
N          N      -0.00000   0.06156   0.00000 
H          H       0.12244   0.95953   0.49120 
H          H       0.87468   0.96551   0.00835 
H          H       0.87790   0.04135   0.50103 
H          H       0.11744   0.04853   0.00098 
H          H       0.62592   0.53614   0.49960 
H          H       0.62246   0.46174   0.00287 
H          H       0.37719   0.46461   0.49327 
H          H       0.37588   0.53124   0.00357 
C          C       0.36479   0.36757   0.84909 
C          C       0.63521   0.63243   0.84909 
C          C       0.63521   0.36757   0.65091 
C          C       0.36479   0.63243   0.65091 
C          C       0.13521   0.13243   0.65091 
C          C       0.86479   0.86757   0.65091 
C          C       0.86479   0.13243   0.84909 
C          C       0.13521   0.86757   0.84909 
C          C       0.39294   0.39285   0.85545 
C          C       0.60706   0.60715   0.85545 
C          C       0.60706   0.39285   0.64455 
C          C       0.39294   0.60715   0.64455 
C          C       0.10706   0.10715   0.64455 
C          C       0.89294   0.89285   0.64455 
C          C       0.89294   0.10715   0.85545 
C          C       0.10706   0.89285   0.85545 
H          H       0.34964   0.36912   0.75436 
H          H       0.65036   0.63088   0.75436 
H          H       0.65036   0.36912   0.74564 
H          H       0.34964   0.63088   0.74564 
H          H       0.15036   0.13088   0.74564 
H          H       0.84964   0.86912   0.74564 
H          H       0.84964   0.13088   0.75436 
H          H       0.15036   0.86912   0.75436 
H          H       0.39808   0.41306   0.76584 
H          H       0.60192   0.58694   0.76584 
H          H       0.60192   0.41306   0.73416 
H          H       0.39808   0.58694   0.73416 
H          H       0.10192   0.08694   0.73416 
H          H       0.89808   0.91306   0.73416 
H          H       0.89808   0.08694   0.76584 
H          H       0.10192   0.91306   0.76584 
C          C       0.87662   0.84086   0.91653 
C          C       0.12338   0.15914   0.91653 
C          C       0.12338   0.84086   0.58347 
C          C       0.87662   0.15914   0.58347 
C          C       0.62338   0.65914   0.58347 
C          C       0.37662   0.34086   0.58347 
C          C       0.37662   0.65914   0.91653 
C          C       0.62338   0.34086   0.91653 
C          C       0.90534   0.86589   0.91113 
C          C       0.09466   0.13411   0.91113 
C          C       0.09466   0.86589   0.58887 
C          C       0.90534   0.13411   0.58887 
C          C       0.59466   0.63411   0.58887 
C          C       0.40534   0.36589   0.58887 
C          C       0.40534   0.63411   0.91113 
C          C       0.59466   0.36589   0.91113 
H          H       0.87112   0.82157   0.82530 
H          H       0.12888   0.17843   0.82530 
H          H       0.12888   0.82157   0.67470 
H          H       0.87112   0.17843   0.67470 
H          H       0.62888   0.67843   0.67470 
H          H       0.37112   0.32157   0.67470 
H          H       0.37112   0.67843   0.82530 
H          H       0.62888   0.32157   0.82530 
H          H       0.92007   0.86523   0.81504 
H          H       0.07993   0.13477   0.81504 
H          H       0.07993   0.86523   0.68496 
H          H       0.92007   0.13477   0.68496 
H          H       0.57993   0.63477   0.68496 
H          H       0.42007   0.36523   0.68496 
H          H       0.42007   0.63477   0.81504 
H          H       0.57993   0.36523   0.81504 
N          N       0.17350   0.18078   0.54834 
N          N       0.82650   0.81922   0.54834 
N          N       0.82650   0.18078   0.95166 
N          N       0.17350   0.81922   0.95166 
N          N       0.32650   0.31922   0.95166 
N          N       0.67350   0.68078   0.95166 
N          N       0.67350   0.31922   0.54834 
N          N       0.32650   0.68078   0.54834 
C          C       0.18863   0.20689   0.95200 
C          C       0.81137   0.79311   0.95200 
C          C       0.81137   0.20689   0.54800 
C          C       0.18863   0.79311   0.54800 
C          C       0.31137   0.29311   0.54800 
C          C       0.68863   0.70689   0.54800 
C          C       0.68863   0.29311   0.95200 
C          C       0.31137   0.70689   0.95200 
C          C       0.21920   0.22804   0.97843 
C          C       0.78080   0.77196   0.97843 
C          C       0.78080   0.22804   0.52157 
C          C       0.21920   0.77196   0.52157 
C          C       0.28080   0.27196   0.52157 
C          C       0.71920   0.72804   0.52157 
C          C       0.71920   0.27196   0.97843 
C          C       0.28080   0.72804   0.97843 
C          C       0.23675   0.22511   0.60822 
C          C       0.76325   0.77489   0.60822 
C          C       0.76325   0.22511   0.89178 
C          C       0.23675   0.77489   0.89178 
C          C       0.26325   0.27489   0.89178 
C          C       0.73675   0.72511   0.89178 
C          C       0.73675   0.27489   0.60822 
C          C       0.26325   0.72511   0.60822 
C          C       0.23330   0.25350   0.87101 
C          C       0.76670   0.74650   0.87101 
C          C       0.76670   0.25350   0.62899 
C          C       0.23330   0.74650   0.62899 
C          C       0.26670   0.24650   0.62899 
C          C       0.73330   0.75350   0.62899 
C          C       0.73330   0.24650   0.87101 
C          C       0.26670   0.75350   0.87101 
C          C       0.47325   0.41255   0.99716 
C          C       0.52675   0.58745   0.99716 
C          C       0.52675   0.41255   0.50284 
C          C       0.47325   0.58745   0.50284 
C          C       0.02675   0.08745   0.50284 
C          C       0.97325   0.91255   0.50284 
C          C       0.97325   0.08745   0.99716 
C          C       0.02675   0.91255   0.99716 
C          C       0.41389   0.39321   0.97593 
C          C       0.58611   0.60679   0.97593 
C          C       0.58611   0.39321   0.52407 
C          C       0.41389   0.60679   0.52407 
C          C       0.08611   0.10679   0.52407 
C          C       0.91389   0.89321   0.52407 
C          C       0.91389   0.10679   0.97593 
C          C       0.08611   0.89321   0.97593 
C          C       0.43990   0.42410   0.98872 
C          C       0.56010   0.57590   0.98872 
C          C       0.56010   0.42410   0.51128 
C          C       0.43990   0.57590   0.51128 
C          C       0.06010   0.07590   0.51128 
C          C       0.93990   0.92410   0.51128 
C          C       0.93990   0.07590   0.98872 
C          C       0.06010   0.92410   0.98872 
C          C       0.35542   0.34159   0.96320 
C          C       0.64458   0.65841   0.96320 
C          C       0.64458   0.34159   0.53680 
C          C       0.35542   0.65841   0.53680 
C          C       0.14458   0.15841   0.53680 
C          C       0.85542   0.84159   0.53680 
C          C       0.85542   0.15841   0.96320 
C          C       0.14458   0.84159   0.96320 
C          C       0.43125   0.46638   0.99217 
C          C       0.56875   0.53362   0.99217 
C          C       0.56875   0.46638   0.50783 
C          C       0.43125   0.53362   0.50783 
C          C       0.06875   0.03362   0.50783 
C          C       0.93125   0.96638   0.50783 
C          C       0.93125   0.03362   0.99217 
C          C       0.06875   0.96638   0.99217 
C          C       0.48297   0.37167   0.99746 
C          C       0.51703   0.62833   0.99746 
C          C       0.51703   0.37167   0.50254 
C          C       0.48297   0.62833   0.50254 
C          C       0.01703   0.12833   0.50254 
C          C       0.98297   0.87167   0.50254 
C          C       0.98297   0.12833   0.99746 
C          C       0.01703   0.87167   0.99746 
C          C       0.39899   0.47868   0.99630 
C          C       0.60101   0.52132   0.99630 
C          C       0.60101   0.47868   0.50370 
C          C       0.39899   0.52132   0.50370 
C          C       0.10101   0.02132   0.50370 
C          C       0.89899   0.97868   0.50370 
C          C       0.89899   0.02132   0.99630 
C          C       0.10101   0.97868   0.99630 
H          H       0.17732   0.21172   0.84875 
H          H       0.82268   0.78828   0.84875 
H          H       0.82268   0.21172   0.65125 
H          H       0.17732   0.78828   0.65125 
H          H       0.32268   0.28828   0.65125 
H          H       0.67732   0.71172   0.65125 
H          H       0.67732   0.28828   0.84875 
H          H       0.32268   0.71172   0.84875 
H          H       0.22738   0.20629   0.69474 
H          H       0.77262   0.79371   0.69474 
H          H       0.77262   0.20629   0.80526 
H          H       0.22738   0.79371   0.80526 
H          H       0.27262   0.29371   0.80526 
H          H       0.72738   0.70629   0.80526 
H          H       0.72738   0.29371   0.69474 
H          H       0.27262   0.70629   0.69474 
H          H       0.22108   0.25695   0.76893 
H          H       0.77892   0.74305   0.76893 
H          H       0.77892   0.25695   0.73107 
H          H       0.22108   0.74305   0.73107 
H          H       0.27892   0.24305   0.73107 
H          H       0.72108   0.75695   0.73107 
H          H       0.72108   0.24305   0.76893 
H          H       0.27892   0.75695   0.76893 
H          H       0.46774   0.34447   0.99358 
H          H       0.53226   0.65553   0.99358 
H          H       0.53226   0.34447   0.50642 
H          H       0.46774   0.65553   0.50642 
H          H       0.03226   0.15553   0.50642 
H          H       0.96657   0.84297   0.50660 
H          H       0.96774   0.15553   0.99358 
H          H       0.03226   0.84447   0.99358 
N          N       0.45171   0.50000   0.50000 
N          N       0.54829   0.50000   0.50000 
N          N       0.04829   0.00000   0.50000 
N          N       0.95171   0.00000   0.50000 
Co         Co      0.50000   0.50000   0.50000 
Co         Co      0.00000   0.00000   0.50000 
N          N       0.50000   0.56156   0.50000 
N          N       0.50000   0.43844   0.50000 
N          N      -0.00000   0.93844   0.50000 
N          N      -0.00000   0.06156   0.50000 
H          H       0.12244   0.95953   0.99120 
H          H       0.87468   0.96551   0.50835 
H          H       0.87790   0.04135   1.00103 
H          H       0.11744   0.04853   0.50098 
H          H       0.62592   0.53614   0.99960 
H          H       0.62246   0.46174   0.50287 
H          H       0.37719   0.46461   0.99327 
H          H       0.37588   0.53124   0.50357 
