data_crystal

_cell_length_a    42.43250
_cell_length_b    30.64710
_cell_length_c    9.31940
_cell_angle_alpha 90.00000
_cell_angle_beta  90.00000
_cell_angle_gamma 90.00000

_space_group_name_Hall 'P 1'
_space_group_name_H-M_alt  'P 1'

loop_
_symmetry_equiv_pos_as_xyz
'x,y,z' 

loop_
_atom_site_label
_atom_site_type_symbol
_atom_site_fract_x
_atom_site_fract_y
_atom_site_fract_z
C          C       0.36299   0.37105   0.35431 
C          C       0.63701   0.62895   0.35431 
C          C       0.63701   0.37105   0.14569 
C          C       0.36299   0.62895   0.14569 
C          C       0.13701   0.12895   0.14569 
C          C       0.86299   0.87105   0.14569 
C          C       0.86299   0.12895   0.35431 
C          C       0.13701   0.87105   0.35431 
C          C       0.39177   0.39473   0.35667 
C          C       0.60823   0.60527   0.35667 
C          C       0.60823   0.39473   0.14333 
C          C       0.39177   0.60527   0.14333 
C          C       0.10823   0.10527   0.14333 
C          C       0.89177   0.89473   0.14333 
C          C       0.89177   0.10527   0.35667 
C          C       0.10823   0.89473   0.35667 
C          C       0.41548   0.38815   0.46247 
C          C       0.58452   0.61185   0.46247 
C          C       0.58452   0.38815   0.03753 
C          C       0.41548   0.61185   0.03753 
C          C       0.08452   0.11185   0.03753 
C          C       0.91548   0.88815   0.03753 
C          C       0.91548   0.11185   0.46247 
C          C       0.08452   0.88815   0.46247 
C          C       0.35646   0.33762   0.45259 
C          C       0.64354   0.66238   0.45259 
C          C       0.64354   0.33762   0.04741 
C          C       0.35646   0.66238   0.04741 
C          C       0.14354   0.16238   0.04741 
C          C       0.85646   0.83762   0.04741 
C          C       0.85646   0.16238   0.45259 
C          C       0.14354   0.83762   0.45259 
H          H       0.34534   0.37940   0.27463 
H          H       0.65466   0.62060   0.27463 
H          H       0.65466   0.37940   0.22537 
H          H       0.34534   0.62060   0.22537 
H          H       0.15466   0.12060   0.22537 
H          H       0.84534   0.87940   0.22537 
H          H       0.84534   0.12060   0.27463 
H          H       0.15466   0.87940   0.27463 
H          H       0.39487   0.42022   0.27797 
H          H       0.60513   0.57978   0.27797 
H          H       0.60513   0.42022   0.22203 
H          H       0.39487   0.57978   0.22203 
H          H       0.10513   0.07978   0.22203 
H          H       0.89487   0.92022   0.22203 
H          H       0.89487   0.07978   0.27797 
H          H       0.10513   0.92022   0.27797 
C          C       0.61895   0.67228   0.05141 
C          C       0.38105   0.32772   0.05141 
C          C       0.38105   0.67228   0.44859 
C          C       0.61895   0.32772   0.44859 
C          C       0.88105   0.82772   0.44859 
C          C       0.11895   0.17228   0.44859 
C          C       0.11895   0.82772   0.05141 
C          C       0.88105   0.17228   0.05141 
C          C       0.59017   0.64744   0.05640 
C          C       0.40983   0.35256   0.05640 
C          C       0.40983   0.64744   0.44360 
C          C       0.59017   0.35256   0.44360 
C          C       0.90983   0.85256   0.44360 
C          C       0.09017   0.14744   0.44360 
C          C       0.09017   0.85256   0.05640 
C          C       0.90983   0.14744   0.05640 
H          H       0.62217   0.69786   0.12929 
H          H       0.37783   0.30214   0.12929 
H          H       0.37783   0.69786   0.37071 
H          H       0.62217   0.30214   0.37071 
H          H       0.87783   0.80214   0.37071 
H          H       0.12217   0.19786   0.37071 
H          H       0.12217   0.80214   0.12929 
H          H       0.87783   0.19786   0.12929 
H          H       0.57344   0.65431   0.14133 
H          H       0.42656   0.34569   0.14133 
H          H       0.42656   0.65431   0.35867 
H          H       0.57344   0.34569   0.35867 
H          H       0.92656   0.84569   0.35867 
H          H       0.07344   0.15431   0.35867 
H          H       0.07344   0.84569   0.14133 
H          H       0.92656   0.15431   0.14133 
C          C       0.47396   0.40793   0.49287 
C          C       0.52604   0.59207   0.49287 
C          C       0.52604   0.40793   0.00713 
C          C       0.47396   0.59207   0.00713 
C          C       0.02604   0.09207   0.00713 
C          C       0.97396   0.90793   0.00713 
C          C       0.97396   0.09207   0.49287 
C          C       0.02604   0.90793   0.49287 
C          C       0.43312   0.46475   0.49124 
C          C       0.56688   0.53525   0.49124 
C          C       0.56688   0.46475   0.00876 
C          C       0.43312   0.53525   0.00876 
C          C       0.06688   0.03525   0.00876 
C          C       0.93312   0.96475   0.00876 
C          C       0.93312   0.03525   0.49124 
C          C       0.06688   0.96475   0.49124 
C          C       0.48388   0.36511   0.49337 
C          C       0.51612   0.63489   0.49337 
C          C       0.51612   0.36511   0.00663 
C          C       0.48388   0.63489   0.00663 
C          C       0.01612   0.13489   0.00663 
C          C       0.98388   0.86511   0.00663 
C          C       0.98388   0.13489   0.49337 
C          C       0.01612   0.86511   0.49337 
C          C       0.40183   0.47825   0.49911 
C          C       0.59817   0.52175   0.49911 
C          C       0.59817   0.47825   0.00089 
C          C       0.40183   0.52175   0.00089 
C          C       0.09817   0.02175   0.00089 
C          C       0.90183   0.97825   0.00089 
C          C       0.90183   0.02175   0.49911 
C          C       0.09817   0.97825   0.49911 
H          H       0.46952   0.33619   0.48479 
H          H       0.53048   0.66381   0.48479 
H          H       0.53048   0.33619   0.01521 
H          H       0.46952   0.66381   0.01521 
H          H       0.03048   0.16381   0.01521 
H          H       0.96952   0.83619   0.01521 
H          H       0.96952   0.16381   0.48479 
H          H       0.03048   0.83619   0.48479 
H          H       0.38037   0.45923   0.00526 
H          H       0.61963   0.54077   0.00526 
H          H       0.61963   0.45923   0.49474 
H          H       0.38037   0.54077   0.49474 
H          H       0.11963   0.04077   0.49474 
H          H       0.88037   0.95923   0.49474 
H          H       0.88037   0.04077   0.00526 
H          H       0.11963   0.95923   0.00526 
C          C       0.55868   0.42009   0.01815 
C          C       0.44132   0.57991   0.01815 
C          C       0.44132   0.42009   0.48185 
C          C       0.55868   0.57991   0.48185 
C          C       0.94132   0.07991   0.48185 
C          C       0.05868   0.92009   0.48185 
C          C       0.05868   0.07991   0.01815 
C          C       0.94132   0.92009   0.01815 
N          N       0.17320   0.81754   0.44786 
N          N       0.82680   0.18246   0.44786 
N          N       0.82680   0.81754   0.05214 
N          N       0.17320   0.18246   0.05214 
N          N       0.32680   0.68246   0.05214 
N          N       0.67320   0.31754   0.05214 
N          N       0.67320   0.68246   0.44786 
N          N       0.32680   0.31754   0.44786 
C          C       0.18580   0.78438   0.02958 
C          C       0.81420   0.21562   0.02958 
C          C       0.81420   0.78438   0.47042 
C          C       0.18580   0.21562   0.47042 
C          C       0.31420   0.71562   0.47042 
C          C       0.68580   0.28438   0.47042 
C          C       0.68580   0.71562   0.02958 
C          C       0.31420   0.28438   0.02958 
C          C       0.21780   0.76755   0.01316 
C          C       0.78220   0.23245   0.01316 
C          C       0.78220   0.76755   0.48684 
C          C       0.21780   0.23245   0.48684 
C          C       0.28220   0.73245   0.48684 
C          C       0.71780   0.26755   0.48684 
C          C       0.71780   0.73245   0.01316 
C          C       0.28220   0.26755   0.01316 
C          C       0.23997   0.78486   0.41504 
C          C       0.76003   0.21514   0.41504 
C          C       0.76003   0.78486   0.08496 
C          C       0.23997   0.21514   0.08496 
C          C       0.26003   0.71514   0.08496 
C          C       0.73997   0.28486   0.08496 
C          C       0.73997   0.71514   0.41504 
C          C       0.26003   0.28486   0.41504 
C          C       0.22869   0.73212   0.09785 
C          C       0.77131   0.26788   0.09785 
C          C       0.77131   0.73212   0.40215 
C          C       0.22869   0.26788   0.40215 
C          C       0.27131   0.76788   0.40215 
C          C       0.72869   0.23212   0.40215 
C          C       0.72869   0.76788   0.09785 
C          C       0.27131   0.23212   0.09785 
H          H       0.17094   0.76981   0.11088 
H          H       0.82906   0.23019   0.11088 
H          H       0.82906   0.76981   0.38912 
H          H       0.17094   0.23019   0.38912 
H          H       0.32906   0.73019   0.38912 
H          H       0.67094   0.26981   0.38912 
H          H       0.67094   0.73019   0.11088 
H          H       0.32906   0.26981   0.11088 
H          H       0.23317   0.81180   0.34717 
H          H       0.76683   0.18820   0.34717 
H          H       0.76683   0.81180   0.15283 
H          H       0.23317   0.18820   0.15283 
H          H       0.26683   0.68820   0.15283 
H          H       0.73317   0.31180   0.15283 
H          H       0.73317   0.68820   0.34717 
H          H       0.26683   0.31180   0.34717 
H          H       0.28589   0.78108   0.31856 
F          F       0.70892   0.21346   0.30532 
F          F       0.70892   0.78654   0.19468 
H          H       0.28666   0.21425   0.17481 
F          F       0.20892   0.71346   0.19468 
H          H       0.78666   0.28158   0.18302 
H          H       0.78507   0.71905   0.31088 
F          F       0.20892   0.28654   0.30532 
N          N       0.45313   0.50000   0.00000 
N          N       0.54687   0.50000   0.00000 
N          N       0.04687   0.00000   0.00000 
N          N       0.95313   0.00000   0.00000 
Co         Co      0.50000   0.50000   0.00000 
Co         Co      0.00000   0.00000   0.00000 
N          N       0.50000   0.56475   0.00000 
N          N       0.50000   0.43525   0.00000 
N          N      -0.00000   0.93525   0.00000 
N          N      -0.00000   0.06475   0.00000 
C          C       0.36299   0.37105   0.85431 
C          C       0.63701   0.62895   0.85431 
C          C       0.63701   0.37105   0.64569 
C          C       0.36299   0.62895   0.64569 
C          C       0.13701   0.12895   0.64569 
C          C       0.86299   0.87105   0.64569 
C          C       0.86299   0.12895   0.85431 
C          C       0.13701   0.87105   0.85431 
C          C       0.39177   0.39473   0.85667 
C          C       0.60823   0.60527   0.85667 
C          C       0.60823   0.39473   0.64333 
C          C       0.39177   0.60527   0.64333 
C          C       0.10823   0.10527   0.64333 
C          C       0.89177   0.89473   0.64333 
C          C       0.89177   0.10527   0.85667 
C          C       0.10823   0.89473   0.85667 
C          C       0.41548   0.38815   0.96247 
C          C       0.58452   0.61185   0.96247 
C          C       0.58452   0.38815   0.53753 
C          C       0.41548   0.61185   0.53753 
C          C       0.08452   0.11185   0.53753 
C          C       0.91548   0.88815   0.53753 
C          C       0.91548   0.11185   0.96247 
C          C       0.08452   0.88815   0.96247 
C          C       0.35646   0.33762   0.95259 
C          C       0.64354   0.66238   0.95259 
C          C       0.64354   0.33762   0.54741 
C          C       0.35646   0.66238   0.54741 
C          C       0.14354   0.16238   0.54741 
C          C       0.85646   0.83762   0.54741 
C          C       0.85646   0.16238   0.95259 
C          C       0.14354   0.83762   0.95259 
H          H       0.34534   0.37940   0.77463 
H          H       0.65466   0.62060   0.77463 
H          H       0.65466   0.37940   0.72537 
H          H       0.34534   0.62060   0.72537 
H          H       0.15466   0.12060   0.72537 
H          H       0.84534   0.87940   0.72537 
H          H       0.84534   0.12060   0.77463 
H          H       0.15466   0.87940   0.77463 
H          H       0.39487   0.42022   0.77797 
H          H       0.60513   0.57978   0.77797 
H          H       0.60513   0.42022   0.72203 
H          H       0.39487   0.57978   0.72203 
H          H       0.10513   0.07978   0.72203 
H          H       0.89487   0.92022   0.72203 
H          H       0.89487   0.07978   0.77797 
H          H       0.10513   0.92022   0.77797 
C          C       0.61895   0.67228   0.55141 
C          C       0.38105   0.32772   0.55141 
C          C       0.38105   0.67228   0.94859 
C          C       0.61895   0.32772   0.94859 
C          C       0.88105   0.82772   0.94859 
C          C       0.11895   0.17228   0.94859 
C          C       0.11895   0.82772   0.55141 
C          C       0.88105   0.17228   0.55141 
C          C       0.59017   0.64744   0.55640 
C          C       0.40983   0.35256   0.55640 
C          C       0.40983   0.64744   0.94360 
C          C       0.59017   0.35256   0.94360 
C          C       0.90983   0.85256   0.94360 
C          C       0.09017   0.14744   0.94360 
C          C       0.09017   0.85256   0.55640 
C          C       0.90983   0.14744   0.55640 
H          H       0.62217   0.69786   0.62929 
H          H       0.37783   0.30214   0.62929 
H          H       0.37783   0.69786   0.87071 
H          H       0.62217   0.30214   0.87071 
H          H       0.87783   0.80214   0.87071 
H          H       0.12217   0.19786   0.87071 
H          H       0.12217   0.80214   0.62929 
H          H       0.87783   0.19786   0.62929 
H          H       0.57344   0.65431   0.64133 
H          H       0.42656   0.34569   0.64133 
H          H       0.42656   0.65431   0.85867 
H          H       0.57344   0.34569   0.85867 
H          H       0.92656   0.84569   0.85867 
H          H       0.07344   0.15431   0.85867 
H          H       0.07344   0.84569   0.64133 
H          H       0.92656   0.15431   0.64133 
C          C       0.47396   0.40793   0.99287 
C          C       0.52604   0.59207   0.99287 
C          C       0.52604   0.40793   0.50713 
C          C       0.47396   0.59207   0.50713 
C          C       0.02604   0.09207   0.50713 
C          C       0.97396   0.90793   0.50713 
C          C       0.97396   0.09207   0.99287 
C          C       0.02604   0.90793   0.99287 
C          C       0.43312   0.46475   0.99124 
C          C       0.56688   0.53525   0.99124 
C          C       0.56688   0.46475   0.50876 
C          C       0.43312   0.53525   0.50876 
C          C       0.06688   0.03525   0.50876 
C          C       0.93312   0.96475   0.50876 
C          C       0.93312   0.03525   0.99124 
C          C       0.06688   0.96475   0.99124 
C          C       0.48388   0.36511   0.99337 
C          C       0.51612   0.63489   0.99337 
C          C       0.51612   0.36511   0.50663 
C          C       0.48388   0.63489   0.50663 
C          C       0.01612   0.13489   0.50663 
C          C       0.98388   0.86511   0.50663 
C          C       0.98388   0.13489   0.99337 
C          C       0.01612   0.86511   0.99337 
C          C       0.40183   0.47825   0.99911 
C          C       0.59817   0.52175   0.99911 
C          C       0.59817   0.47825   0.50089 
C          C       0.40183   0.52175   0.50089 
C          C       0.09817   0.02175   0.50089 
C          C       0.90183   0.97825   0.50089 
C          C       0.90183   0.02175   0.99911 
C          C       0.09817   0.97825   0.99911 
H          H       0.46952   0.33619   0.98479 
H          H       0.53048   0.66381   0.98479 
H          H       0.53048   0.33619   0.51521 
H          H       0.46952   0.66381   0.51521 
H          H       0.03048   0.16381   0.51521 
H          H       0.96952   0.83619   0.51521 
H          H       0.96952   0.16381   0.98479 
H          H       0.03048   0.83619   0.98479 
H          H       0.38037   0.45923   0.50526 
H          H       0.61963   0.54077   0.50526 
H          H       0.61963   0.45923   0.99474 
H          H       0.38037   0.54077   0.99474 
H          H       0.11963   0.04077   0.99474 
H          H       0.88037   0.95923   0.99474 
H          H       0.88037   0.04077   0.50526 
H          H       0.11963   0.95923   0.50526 
C          C       0.55868   0.42009   0.51815 
C          C       0.44132   0.57991   0.51815 
C          C       0.44132   0.42009   0.98185 
C          C       0.55868   0.57991   0.98185 
C          C       0.94132   0.07991   0.98185 
C          C       0.05868   0.92009   0.98185 
C          C       0.05868   0.07991   0.51815 
C          C       0.94132   0.92009   0.51815 
N          N       0.17320   0.81754   0.94786 
N          N       0.82680   0.18246   0.94786 
N          N       0.82680   0.81754   0.55214 
N          N       0.17320   0.18246   0.55214 
N          N       0.32680   0.68246   0.55214 
N          N       0.67320   0.31754   0.55214 
N          N       0.67320   0.68246   0.94786 
N          N       0.32680   0.31754   0.94786 
C          C       0.18580   0.78438   0.52958 
C          C       0.81420   0.21562   0.52958 
C          C       0.81420   0.78438   0.97042 
C          C       0.18580   0.21562   0.97042 
C          C       0.31420   0.71562   0.97042 
C          C       0.68580   0.28438   0.97042 
C          C       0.68580   0.71562   0.52958 
C          C       0.31420   0.28438   0.52958 
C          C       0.21780   0.76755   0.51316 
C          C       0.78220   0.23245   0.51316 
C          C       0.78220   0.76755   0.98684 
C          C       0.21780   0.23245   0.98684 
C          C       0.28220   0.73245   0.98684 
C          C       0.71780   0.26755   0.98684 
C          C       0.71780   0.73245   0.51316 
C          C       0.28220   0.26755   0.51316 
C          C       0.23997   0.78486   0.91504 
C          C       0.76003   0.21514   0.91504 
C          C       0.76003   0.78486   0.58496 
C          C       0.23997   0.21514   0.58496 
C          C       0.26003   0.71514   0.58496 
C          C       0.73997   0.28486   0.58496 
C          C       0.73997   0.71514   0.91504 
C          C       0.26003   0.28486   0.91504 
C          C       0.22869   0.73212   0.59785 
C          C       0.77131   0.26788   0.59785 
C          C       0.77131   0.73212   0.90215 
C          C       0.22869   0.26788   0.90215 
C          C       0.27131   0.76788   0.90215 
C          C       0.72869   0.23212   0.90215 
C          C       0.72869   0.76788   0.59785 
C          C       0.27131   0.23212   0.59785 
H          H       0.17094   0.76981   0.61088 
H          H       0.82906   0.23019   0.61088 
H          H       0.82906   0.76981   0.88912 
H          H       0.17094   0.23019   0.88912 
H          H       0.32906   0.73019   0.88912 
H          H       0.67094   0.26981   0.88912 
H          H       0.67094   0.73019   0.61088 
H          H       0.32906   0.26981   0.61088 
H          H       0.23317   0.81180   0.84717 
H          H       0.76683   0.18820   0.84717 
H          H       0.76683   0.81180   0.65283 
H          H       0.23317   0.18820   0.65283 
H          H       0.26683   0.68820   0.65283 
H          H       0.73317   0.31180   0.65283 
H          H       0.73317   0.68820   0.84717 
H          H       0.26683   0.31180   0.84717 
H          H       0.28589   0.78108   0.81856 
F          F       0.70892   0.21346   0.80532 
F          F       0.70892   0.78654   0.69468 
H          H       0.28666   0.21425   0.67481 
F          F       0.20892   0.71346   0.69468 
H          H       0.78666   0.28158   0.68302 
H          H       0.78507   0.71905   0.81088 
F          F       0.20892   0.28654   0.80532 
N          N       0.45313   0.50000   0.50000 
N          N       0.54687   0.50000   0.50000 
N          N       0.04687   0.00000   0.50000 
N          N       0.95313   0.00000   0.50000 
Co         Co      0.50000   0.50000   0.50000 
Co         Co      0.00000   0.00000   0.50000 
N          N       0.50000   0.56475   0.50000 
N          N       0.50000   0.43525   0.50000 
N          N      -0.00000   0.93525   0.50000 
N          N      -0.00000   0.06475   0.50000 
