data_crystal

_cell_length_a    43.75540
_cell_length_b    43.75540
_cell_length_c    7.78420
_cell_angle_alpha 90.00000
_cell_angle_beta  90.00000
_cell_angle_gamma 120.00000

_space_group_name_Hall 'P 1'
_space_group_name_H-M_alt  'P 1'

loop_
_symmetry_equiv_pos_as_xyz
'x,y,z' 

loop_
_atom_site_label
_atom_site_type_symbol
_atom_site_fract_x
_atom_site_fract_y
_atom_site_fract_z
C          C       0.43928   0.52419   0.28135 
C          C       0.42635   0.54708   0.25242 
H          H       0.46456   0.53091   0.22640 
H          H       0.44193   0.57068   0.17667 
C          C       0.48663   0.38778   0.04834 
C          C       0.50846   0.37381   0.08554 
H          H       0.46500   0.37360   0.46055 
H          H       0.50233   0.34865   0.03036 
C          C       0.52419   0.43928   0.21865 
C          C       0.54708   0.42635   0.24758 
H          H       0.53091   0.46456   0.27360 
H          H       0.57068   0.44193   0.32333 
C          C       0.38778   0.48663   0.45166 
C          C       0.37381   0.50846   0.41446 
H          H       0.37360   0.46500   0.03945 
H          H       0.34865   0.50233   0.46964 
H          H       0.51905   0.48913   0.04671 
H          H       0.48913   0.51905   0.45330 
C          C       0.49075   0.47347   0.03055 
C          C       0.47347   0.49075   0.46945 
C          C       0.43706   0.47249   0.43345 
C          C       0.42028   0.49357   0.38205 
C          C       0.39344   0.53919   0.31767 
B          B       0.37976   0.56545   0.28825 
C          C       0.35330   0.40747   0.34349 
C          C       0.31659   0.34495   0.41997 
C          C       0.34576   0.34576   0.00000 
C          C       0.37753   0.37753   0.00000 
C          C       0.38157   0.40815   0.43152 
C          C       0.40815   0.38157   0.06847 
C          C       0.40747   0.35330   0.15651 
C          C       0.37576   0.32056   0.15947 
C          C       0.34495   0.31659   0.08003 
C          C       0.41869   0.43561   0.46239 
C          C       0.43561   0.41869   0.03761 
C          C       0.47249   0.43706   0.06655 
C          C       0.49357   0.42028   0.11795 
C          C       0.53919   0.39344   0.18233 
B          B       0.56545   0.37976   0.21174 
H          H       0.35607   0.43008   0.27548 
H          H       0.29839   0.37489   0.27432 
H          H       0.29132   0.32079   0.41605 
H          H       0.43008   0.35607   0.22451 
H          H       0.37489   0.29839   0.22568 
H          H       0.32079   0.29132   0.08395 
C          C       0.32520   0.63079   0.26586 
C          C       0.36120   0.65873   0.25934 
C          C       0.26161   0.61176   0.24501 
C          C       0.23520   0.62032   0.25666 
C          C       0.24284   0.65425   0.28343 
C          C       0.27738   0.68188   0.28619 
H          H       0.25339   0.58437   0.22416 
O          O       0.19938   0.59644   0.25411 
O          O       0.21308   0.65723   0.30766 
H          H       0.28122   0.70784   0.30968 
C          C       0.65873   0.36120   0.24066 
C          C       0.63079   0.32520   0.23414 
C          C       0.72262   0.40450   0.21381 
C          C       0.75716   0.41141   0.21657 
C          C       0.76480   0.38512   0.24333 
C          C       0.73839   0.35015   0.25500 
H          H       0.71878   0.42661   0.19032 
O          O       0.78692   0.44415   0.19234 
O          O       0.80062   0.39706   0.24589 
H          H       0.74661   0.33098   0.27584 
C          C       0.32056   0.37576   0.34053 
C          C       0.47581   0.91509   0.28135 
C          C       0.45292   0.87927   0.25242 
H          H       0.46909   0.93365   0.22640 
H          H       0.42932   0.87125   0.17667 
C          C       0.61222   0.09885   0.04834 
C          C       0.62619   0.13465   0.08554 
H          H       0.62640   0.09140   0.46055 
H          H       0.65135   0.15368   0.03036 
C          C       0.56072   0.08491   0.21865 
C          C       0.57365   0.12073   0.24758 
H          H       0.53544   0.06635   0.27360 
H          H       0.55807   0.12875   0.32333 
C          C       0.51337   0.90115   0.45166 
C          C       0.49154   0.86535   0.41446 
H          H       0.53500   0.90860   0.03945 
H          H       0.49767   0.84632   0.46964 
H          H       0.51087   0.02992   0.04671 
H          H       0.48095   0.97008   0.45330 
C          C       0.52653   0.01728   0.03055 
C          C       0.50925   0.98272   0.46945 
C          C       0.52751   0.96457   0.43345 
C          C       0.50643   0.92671   0.38205 
C          C       0.46081   0.85425   0.31767 
B          B       0.43455   0.81431   0.28825 
C          C       0.59253   0.94583   0.34349 
C          C       0.65505   0.97164   0.41997 
C          C       0.65424   0.00000   0.00000 
C          C       0.62247   0.00000   0.00000 
C          C       0.59185   0.97342   0.43152 
C          C       0.61843   0.02658   0.06847 
C          C       0.64670   0.05417   0.15651 
C          C       0.67944   0.05520   0.15947 
C          C       0.68341   0.02836   0.08003 
C          C       0.56439   0.98308   0.46239 
C          C       0.58131   0.01692   0.03761 
C          C       0.56294   0.03543   0.06655 
C          C       0.57972   0.07329   0.11795 
C          C       0.60656   0.14575   0.18233 
B          B       0.62024   0.18569   0.21174 
H          H       0.56992   0.92599   0.27548 
H          H       0.62511   0.92350   0.27432 
H          H       0.67921   0.97053   0.41605 
H          H       0.64393   0.07401   0.22451 
H          H       0.70161   0.07650   0.22568 
H          H       0.70868   0.02947   0.08395 
C          C       0.36921   0.69441   0.26586 
C          C       0.34127   0.70247   0.25934 
C          C       0.38824   0.64985   0.24501 
C          C       0.37968   0.61488   0.25666 
C          C       0.34575   0.58859   0.28343 
C          C       0.31812   0.59550   0.28619 
H          H       0.41563   0.66902   0.22416 
O          O       0.40356   0.60294   0.25411 
O          O       0.34277   0.55585   0.30766 
H          H       0.29216   0.57338   0.30968 
C          C       0.63880   0.29753   0.24066 
C          C       0.67480   0.30559   0.23414 
C          C       0.59550   0.31812   0.21381 
C          C       0.58859   0.34575   0.21657 
C          C       0.61488   0.37968   0.24333 
C          C       0.64985   0.38824   0.25500 
H          H       0.57339   0.29217   0.19032 
O          O       0.55585   0.34277   0.19234 
O          O       0.60294   0.40356   0.24589 
H          H       0.66902   0.41563   0.27584 
C          C       0.62424   0.94480   0.34053 
C          C       0.08491   0.56072   0.28135 
C          C       0.12073   0.57365   0.25242 
H          H       0.06635   0.53544   0.22640 
H          H       0.12875   0.55807   0.17667 
C          C       0.90115   0.51337   0.04834 
C          C       0.86535   0.49154   0.08554 
H          H       0.90860   0.53500   0.46055 
H          H       0.84632   0.49767   0.03036 
C          C       0.91509   0.47581   0.21865 
C          C       0.87927   0.45292   0.24758 
H          H       0.93365   0.46909   0.27360 
H          H       0.87125   0.42932   0.32333 
C          C       0.09885   0.61222   0.45166 
C          C       0.13465   0.62619   0.41446 
H          H       0.09140   0.62640   0.03945 
H          H       0.15368   0.65135   0.46964 
H          H       0.97008   0.48095   0.04671 
H          H       0.02992   0.51087   0.45330 
C          C       0.98272   0.50925   0.03055 
C          C       0.01728   0.52653   0.46945 
C          C       0.03543   0.56294   0.43345 
C          C       0.07329   0.57972   0.38205 
C          C       0.14575   0.60656   0.31767 
B          B       0.18569   0.62024   0.28825 
C          C       0.05417   0.64670   0.34349 
C          C       0.02836   0.68341   0.41997 
C          C       0.00000   0.65424   0.00000 
C          C       0.00000   0.62247   0.00000 
C          C       0.02658   0.61843   0.43152 
C          C       0.97342   0.59185   0.06847 
C          C       0.94583   0.59253   0.15651 
C          C       0.94480   0.62424   0.15947 
C          C       0.97164   0.65505   0.08003 
C          C       0.01692   0.58131   0.46239 
C          C       0.98308   0.56439   0.03761 
C          C       0.96457   0.52751   0.06655 
C          C       0.92671   0.50643   0.11795 
C          C       0.85425   0.46081   0.18233 
B          B       0.81431   0.43455   0.21174 
H          H       0.07401   0.64393   0.27548 
H          H       0.07650   0.70161   0.27432 
H          H       0.02947   0.70868   0.41605 
H          H       0.92599   0.56992   0.22451 
H          H       0.92350   0.62511   0.22568 
H          H       0.97053   0.67921   0.08395 
C          C       0.30559   0.67480   0.26586 
C          C       0.29753   0.63880   0.25934 
C          C       0.35015   0.73839   0.24501 
C          C       0.38512   0.76480   0.25666 
C          C       0.41141   0.75716   0.28343 
C          C       0.40450   0.72262   0.28619 
H          H       0.33098   0.74661   0.22416 
O          O       0.39706   0.80062   0.25411 
O          O       0.44415   0.78692   0.30766 
H          H       0.42662   0.71878   0.30968 
C          C       0.70247   0.34127   0.24066 
C          C       0.69441   0.36921   0.23414 
C          C       0.68188   0.27738   0.21381 
C          C       0.65425   0.24284   0.21657 
C          C       0.62032   0.23520   0.24333 
C          C       0.61176   0.26161   0.25500 
H          H       0.70783   0.28122   0.19032 
O          O       0.65723   0.21308   0.19234 
O          O       0.59644   0.19938   0.24589 
H          H       0.58437   0.25339   0.27584 
C          C       0.05520   0.67944   0.34053 
C          C       0.43928   0.52419   0.78135 
C          C       0.42635   0.54708   0.75242 
H          H       0.46456   0.53091   0.72640 
H          H       0.44193   0.57068   0.67667 
C          C       0.48663   0.38778   0.54834 
C          C       0.50846   0.37381   0.58554 
H          H       0.46500   0.37360   0.96055 
H          H       0.50233   0.34865   0.53036 
C          C       0.52419   0.43928   0.71865 
C          C       0.54708   0.42635   0.74758 
H          H       0.53091   0.46456   0.77360 
H          H       0.57068   0.44193   0.82333 
C          C       0.38778   0.48663   0.95166 
C          C       0.37381   0.50846   0.91446 
H          H       0.37360   0.46500   0.53945 
H          H       0.34865   0.50233   0.96964 
H          H       0.51905   0.48913   0.54671 
H          H       0.48913   0.51905   0.95330 
C          C       0.49075   0.47347   0.53055 
C          C       0.47347   0.49075   0.96945 
C          C       0.43706   0.47249   0.93345 
C          C       0.42028   0.49357   0.88205 
C          C       0.39344   0.53919   0.81767 
B          B       0.37976   0.56545   0.78825 
C          C       0.35330   0.40747   0.84349 
C          C       0.31659   0.34495   0.91997 
C          C       0.34576   0.34576   0.50000 
C          C       0.37753   0.37753   0.50000 
C          C       0.38157   0.40815   0.93153 
C          C       0.40815   0.38157   0.56847 
C          C       0.40747   0.35330   0.65651 
C          C       0.37576   0.32056   0.65947 
C          C       0.34495   0.31659   0.58003 
C          C       0.41869   0.43561   0.96239 
C          C       0.43561   0.41869   0.53761 
C          C       0.47249   0.43706   0.56655 
C          C       0.49357   0.42028   0.61795 
C          C       0.53919   0.39344   0.68233 
B          B       0.56545   0.37976   0.71175 
H          H       0.35607   0.43008   0.77548 
H          H       0.29839   0.37489   0.77431 
H          H       0.29132   0.32079   0.91605 
H          H       0.43008   0.35607   0.72452 
H          H       0.37489   0.29839   0.72569 
H          H       0.32079   0.29132   0.58395 
C          C       0.32520   0.63079   0.76586 
C          C       0.36120   0.65873   0.75934 
C          C       0.26161   0.61176   0.74501 
C          C       0.23520   0.62032   0.75667 
C          C       0.24284   0.65425   0.78343 
C          C       0.27738   0.68188   0.78619 
H          H       0.25339   0.58437   0.72416 
O          O       0.19938   0.59644   0.75411 
O          O       0.21308   0.65723   0.80766 
H          H       0.28122   0.70784   0.80968 
C          C       0.65873   0.36120   0.74066 
C          C       0.63079   0.32520   0.73414 
C          C       0.72262   0.40450   0.71381 
C          C       0.75716   0.41141   0.71656 
C          C       0.76480   0.38512   0.74333 
C          C       0.73839   0.35015   0.75499 
H          H       0.71878   0.42661   0.69032 
O          O       0.78692   0.44415   0.69234 
O          O       0.80062   0.39706   0.74589 
H          H       0.74661   0.33098   0.77584 
C          C       0.32056   0.37576   0.84053 
C          C       0.47581   0.91509   0.78135 
C          C       0.45292   0.87927   0.75242 
H          H       0.46909   0.93365   0.72640 
H          H       0.42932   0.87125   0.67667 
C          C       0.61222   0.09885   0.54834 
C          C       0.62619   0.13465   0.58554 
H          H       0.62640   0.09140   0.96055 
H          H       0.65135   0.15368   0.53036 
C          C       0.56072   0.08491   0.71865 
C          C       0.57365   0.12073   0.74758 
H          H       0.53544   0.06635   0.77360 
H          H       0.55807   0.12875   0.82333 
C          C       0.51337   0.90115   0.95166 
C          C       0.49154   0.86535   0.91446 
H          H       0.53500   0.90860   0.53945 
H          H       0.49767   0.84632   0.96964 
H          H       0.51087   0.02992   0.54671 
H          H       0.48095   0.97008   0.95330 
C          C       0.52653   0.01728   0.53055 
C          C       0.50925   0.98272   0.96945 
C          C       0.52751   0.96457   0.93345 
C          C       0.50643   0.92671   0.88205 
C          C       0.46081   0.85425   0.81767 
B          B       0.43455   0.81431   0.78825 
C          C       0.59253   0.94583   0.84349 
C          C       0.65505   0.97164   0.91997 
C          C       0.65424   0.00000   0.50000 
C          C       0.62247   0.00000   0.50000 
C          C       0.59185   0.97342   0.93153 
C          C       0.61843   0.02658   0.56847 
C          C       0.64670   0.05417   0.65651 
C          C       0.67944   0.05520   0.65947 
C          C       0.68341   0.02836   0.58003 
C          C       0.56439   0.98308   0.96239 
C          C       0.58131   0.01692   0.53761 
C          C       0.56294   0.03543   0.56655 
C          C       0.57972   0.07329   0.61795 
C          C       0.60656   0.14575   0.68233 
B          B       0.62024   0.18569   0.71175 
H          H       0.56992   0.92599   0.77548 
H          H       0.62511   0.92350   0.77431 
H          H       0.67921   0.97053   0.91605 
H          H       0.64393   0.07401   0.72452 
H          H       0.70161   0.07650   0.72569 
H          H       0.70868   0.02947   0.58395 
C          C       0.36921   0.69441   0.76586 
C          C       0.34127   0.70247   0.75934 
C          C       0.38824   0.64985   0.74501 
C          C       0.37968   0.61488   0.75667 
C          C       0.34575   0.58859   0.78343 
C          C       0.31812   0.59550   0.78619 
H          H       0.41563   0.66902   0.72416 
O          O       0.40356   0.60294   0.75411 
O          O       0.34277   0.55585   0.80766 
H          H       0.29216   0.57338   0.80968 
C          C       0.63880   0.29753   0.74066 
C          C       0.67480   0.30559   0.73414 
C          C       0.59550   0.31812   0.71381 
C          C       0.58859   0.34575   0.71656 
C          C       0.61488   0.37968   0.74333 
C          C       0.64985   0.38824   0.75499 
H          H       0.57339   0.29217   0.69032 
O          O       0.55585   0.34277   0.69234 
O          O       0.60294   0.40356   0.74589 
H          H       0.66902   0.41563   0.77584 
C          C       0.62424   0.94480   0.84053 
C          C       0.08491   0.56072   0.78135 
C          C       0.12073   0.57365   0.75242 
H          H       0.06635   0.53544   0.72640 
H          H       0.12875   0.55807   0.67667 
C          C       0.90115   0.51337   0.54834 
C          C       0.86535   0.49154   0.58554 
H          H       0.90860   0.53500   0.96055 
H          H       0.84632   0.49767   0.53036 
C          C       0.91509   0.47581   0.71865 
C          C       0.87927   0.45292   0.74758 
H          H       0.93365   0.46909   0.77360 
H          H       0.87125   0.42932   0.82333 
C          C       0.09885   0.61222   0.95166 
C          C       0.13465   0.62619   0.91446 
H          H       0.09140   0.62640   0.53945 
H          H       0.15368   0.65135   0.96964 
H          H       0.97008   0.48095   0.54671 
H          H       0.02992   0.51087   0.95330 
C          C       0.98272   0.50925   0.53055 
C          C       0.01728   0.52653   0.96945 
C          C       0.03543   0.56294   0.93345 
C          C       0.07329   0.57972   0.88205 
C          C       0.14575   0.60656   0.81767 
B          B       0.18569   0.62024   0.78825 
C          C       0.05417   0.64670   0.84349 
C          C       0.02836   0.68341   0.91997 
C          C      -0.00000   0.65424   0.50000 
C          C      -0.00000   0.62247   0.50000 
C          C       0.02658   0.61843   0.93153 
C          C       0.97342   0.59185   0.56847 
C          C       0.94583   0.59253   0.65651 
C          C       0.94480   0.62424   0.65947 
C          C       0.97164   0.65505   0.58003 
C          C       0.01692   0.58131   0.96239 
C          C       0.98308   0.56439   0.53761 
C          C       0.96457   0.52751   0.56655 
C          C       0.92671   0.50643   0.61795 
C          C       0.85425   0.46081   0.68233 
B          B       0.81431   0.43455   0.71175 
H          H       0.07401   0.64393   0.77548 
H          H       0.07650   0.70161   0.77431 
H          H       0.02947   0.70868   0.91605 
H          H       0.92599   0.56992   0.72452 
H          H       0.92350   0.62511   0.72569 
H          H       0.97053   0.67921   0.58395 
C          C       0.30559   0.67480   0.76586 
C          C       0.29753   0.63880   0.75934 
C          C       0.35015   0.73839   0.74501 
C          C       0.38512   0.76480   0.75667 
C          C       0.41141   0.75716   0.78343 
C          C       0.40450   0.72262   0.78619 
H          H       0.33098   0.74661   0.72416 
O          O       0.39706   0.80062   0.75411 
O          O       0.44415   0.78692   0.80766 
H          H       0.42662   0.71878   0.80968 
C          C       0.70247   0.34127   0.74066 
C          C       0.69441   0.36921   0.73414 
C          C       0.68188   0.27738   0.71381 
C          C       0.65425   0.24284   0.71656 
C          C       0.62032   0.23520   0.74333 
C          C       0.61176   0.26161   0.75499 
H          H       0.70783   0.28122   0.69032 
O          O       0.65723   0.21308   0.69234 
O          O       0.59644   0.19938   0.74589 
H          H       0.58437   0.25339   0.77584 
C          C       0.05520   0.67944   0.84053 
