data_crystal

_cell_length_a    46.00370
_cell_length_b    46.00370
_cell_length_c    13.27560
_cell_angle_alpha 90.00000
_cell_angle_beta  90.00000
_cell_angle_gamma 120.00000

_space_group_name_Hall 'P 1'
_space_group_name_H-M_alt  'P 1'

loop_
_symmetry_equiv_pos_as_xyz
'x,y,z' 

loop_
_atom_site_label
_atom_site_type_symbol
_atom_site_fract_x
_atom_site_fract_y
_atom_site_fract_z
C          C       0.36244   0.66277   0.12500 
C          C       0.36635   0.69586   0.12500 
C          C       0.32459   0.60026   0.12500 
C          C       0.29231   0.57239   0.12500 
C          C       0.26482   0.57623   0.12500 
C          C       0.26791   0.60792   0.12500 
O          O       0.28408   0.53875   0.12500 
O          O       0.23481   0.54581   0.12500 
C          C       0.96567   0.99488   0.12500 
C          C       0.97022   0.96622   0.12500 
C          C       0.99236   0.05873   0.12500 
C          C       0.02229   0.09219   0.12500 
C          C       0.05344   0.09575   0.12500 
C          C       0.05759   0.06771   0.12500 
H          H       0.96860   0.05791   0.12500 
O          O       0.02281   0.12262   0.12500 
O          O       0.07901   0.12930   0.12500 
H          H       0.08311   0.07290   0.12500 
C          C       0.60618   0.68654   0.12500 
C          C       0.60637   0.65627   0.12500 
C          C       0.63605   0.65601   0.12500 
C          C       0.66594   0.68625   0.12500 
C          C       0.66594   0.71724   0.12500 
C          C       0.63665   0.71891   0.12500 
C          C       0.69523   0.74821   0.12500 
C          C       0.72570   0.74629   0.12500 
C          C       0.72552   0.71584   0.12500 
C          C       0.69584   0.68590   0.12500 
C          C       0.64724   0.75673   0.12500 
C          C       0.68460   0.77541   0.12500 
C          C       0.70356   0.81297   0.12500 
C          C       0.68309   0.82742   0.12500 
C          C       0.64871   0.81022   0.12500 
C          C       0.62825   0.77530   0.12500 
C          C       0.74215   0.84030   0.12500 
C          C       0.58964   0.76404   0.12500 
C          C       0.76676   0.83158   0.12500 
C          C       0.80139   0.85379   0.12500 
C          C       0.81407   0.88827   0.12500 
C          C       0.79081   0.89944   0.12500 
C          C       0.75582   0.87625   0.12500 
C          C       0.56497   0.73071   0.12500 
C          C       0.53033   0.71835   0.12500 
C          C       0.51771   0.74021   0.12500 
C          C       0.54104   0.77463   0.12500 
C          C       0.57602   0.78635   0.12500 
B          B       0.85368   0.91281   0.12500 
B          B       0.47809   0.72528   0.12500 
H          H       0.34473   0.59479   0.12500 
H          H       0.24469   0.60820   0.12500 
H          H       0.58052   0.67887   0.12500 
H          H       0.58299   0.63247   0.12500 
H          H       0.63560   0.63220   0.12500 
H          H       0.75139   0.76428   0.12500 
H          H       0.74889   0.71541   0.12500 
H          H       0.69629   0.66256   0.12500 
H          H       0.69283   0.85389   0.12500 
H          H       0.63899   0.82697   0.12500 
H          H       0.75886   0.80741   0.12500 
H          H       0.81815   0.84360   0.12500 
H          H       0.79953   0.92612   0.12500 
H          H       0.74104   0.88834   0.12500 
H          H       0.57276   0.71435   0.12500 
H          H       0.51351   0.69142   0.12500 
H          H       0.53239   0.79263   0.12500 
H          H       0.59081   0.81322   0.12500 
C          C       0.33723   0.69967   0.12500 
C          C       0.30414   0.67049   0.12500 
C          C       0.39974   0.72433   0.12500 
C          C       0.42761   0.71992   0.12500 
C          C       0.42377   0.68859   0.12500 
C          C       0.39208   0.65999   0.12500 
O          O       0.46125   0.74533   0.12500 
O          O       0.45419   0.68900   0.12500 
C          C       0.00512   0.97079   0.12500 
C          C       0.03378   0.00400   0.12500 
C          C       0.94127   0.93363   0.12500 
C          C       0.90781   0.93010   0.12500 
C          C       0.90425   0.95769   0.12500 
C          C       0.93229   0.98988   0.12500 
H          H       0.94209   0.91069   0.12500 
O          O       0.87738   0.90019   0.12500 
O          O       0.87070   0.94971   0.12500 
H          H       0.92710   0.01021   0.12500 
C          C       0.31346   0.91964   0.12500 
C          C       0.34373   0.95010   0.12500 
C          C       0.34399   0.98004   0.12500 
C          C       0.31375   0.97969   0.12500 
C          C       0.28276   0.94870   0.12500 
C          C       0.28109   0.91774   0.12500 
C          C       0.25179   0.94702   0.12500 
C          C       0.25371   0.97941   0.12500 
C          C       0.28416   0.00968   0.12500 
C          C       0.31410   0.00994   0.12500 
C          C       0.24327   0.89051   0.12500 
C          C       0.22459   0.90919   0.12500 
C          C       0.18703   0.89059   0.12500 
C          C       0.17258   0.85567   0.12500 
C          C       0.18978   0.83849   0.12500 
C          C       0.22470   0.85295   0.12500 
C          C       0.15970   0.90185   0.12500 
C          C       0.23596   0.82560   0.12500 
C          C       0.16842   0.93518   0.12500 
C          C       0.14621   0.94760   0.12500 
C          C       0.11173   0.92580   0.12500 
C          C       0.10056   0.89137   0.12500 
C          C       0.12375   0.87957   0.12500 
C          C       0.26929   0.83426   0.12500 
C          C       0.28165   0.81198   0.12500 
C          C       0.25979   0.77750   0.12500 
C          C       0.22537   0.76641   0.12500 
C          C       0.21365   0.78967   0.12500 
B          B       0.08719   0.94087   0.12500 
B          B       0.27472   0.75281   0.12500 
H          H       0.40521   0.74994   0.12500 
H          H       0.39180   0.63649   0.12500 
H          H       0.32113   0.90165   0.12500 
H          H       0.36753   0.95052   0.12500 
H          H       0.36780   0.00340   0.12500 
H          H       0.23572   0.98711   0.12500 
H          H       0.28459   0.03348   0.12500 
H          H       0.33744   0.03373   0.12500 
H          H       0.14611   0.83894   0.12500 
H          H       0.17303   0.81202   0.12500 
H          H       0.19259   0.95145   0.12500 
H          H       0.15640   0.97455   0.12500 
H          H       0.07388   0.87341   0.12500 
H          H       0.11166   0.85270   0.12500 
H          H       0.28565   0.85841   0.12500 
H          H       0.30858   0.82209   0.12500 
H          H       0.20737   0.73976   0.12500 
H          H       0.18678   0.77759   0.12500 
C          C       0.30033   0.63756   0.12500 
C          C       0.32951   0.63365   0.12500 
C          C       0.27567   0.67541   0.12500 
C          C       0.28008   0.70769   0.12500 
C          C       0.31141   0.73518   0.12500 
C          C       0.34001   0.73209   0.12500 
O          O       0.25467   0.71592   0.12500 
O          O       0.31100   0.76519   0.12500 
C          C       0.02921   0.03433   0.12500 
C          C       0.99600   0.02978   0.12500 
C          C       0.06637   0.00764   0.12500 
C          C       0.06990   0.97771   0.12500 
C          C       0.04231   0.94656   0.12500 
C          C       0.01012   0.94241   0.12500 
H          H       0.08931   0.03140   0.12500 
O          O       0.09981   0.97719   0.12500 
O          O       0.05029   0.92099   0.12500 
H          H       0.98979   0.91689   0.12500 
C          C       0.08036   0.39382   0.12500 
C          C       0.04990   0.39363   0.12500 
C          C       0.01996   0.36395   0.12500 
C          C       0.02031   0.33406   0.12500 
C          C       0.05130   0.33406   0.12500 
C          C       0.08226   0.36335   0.12500 
C          C       0.05298   0.30477   0.12500 
C          C       0.02059   0.27430   0.12500 
C          C       0.99032   0.27448   0.12500 
C          C       0.99006   0.30416   0.12500 
C          C       0.10949   0.35276   0.12500 
C          C       0.09081   0.31540   0.12500 
C          C       0.10941   0.29644   0.12500 
C          C       0.14433   0.31691   0.12500 
C          C       0.16151   0.35129   0.12500 
C          C       0.14705   0.37175   0.12500 
C          C       0.09815   0.25785   0.12500 
C          C       0.17440   0.41036   0.12500 
C          C       0.06482   0.23324   0.12500 
C          C       0.05240   0.19861   0.12500 
C          C       0.07420   0.18593   0.12500 
C          C       0.10863   0.20919   0.12500 
C          C       0.12043   0.24418   0.12500 
C          C       0.16574   0.43503   0.12500 
C          C       0.18802   0.46967   0.12500 
C          C       0.22250   0.48229   0.12500 
C          C       0.23359   0.45896   0.12500 
C          C       0.21033   0.42398   0.12500 
B          B       0.05913   0.14632   0.12500 
B          B       0.24719   0.52191   0.12500 
H          H       0.25006   0.65527   0.12500 
H          H       0.36351   0.75531   0.12500 
H          H       0.09835   0.41948   0.12500 
H          H       0.04948   0.41701   0.12500 
H          H       0.99660   0.36440   0.12500 
H          H       0.01289   0.24861   0.12500 
H          H       0.96652   0.25111   0.12500 
H          H       0.96627   0.30371   0.12500 
H          H       0.16106   0.30717   0.12500 
H          H       0.18798   0.36101   0.12500 
H          H       0.04855   0.24114   0.12500 
H          H       0.02545   0.18185   0.12500 
H          H       0.12659   0.20047   0.12500 
H          H       0.14730   0.25896   0.12500 
H          H       0.14159   0.42724   0.12500 
H          H       0.17791   0.48649   0.12500 
H          H       0.26024   0.46761   0.12500 
H          H       0.22241   0.40919   0.12500 
C          C       0.63756   0.33723   0.37500 
C          C       0.63365   0.30414   0.37500 
C          C       0.67541   0.39974   0.37500 
C          C       0.70769   0.42761   0.37500 
C          C       0.73518   0.42377   0.37500 
C          C       0.73209   0.39208   0.37500 
O          O       0.71592   0.46125   0.37500 
O          O       0.76519   0.45419   0.37500 
C          C       0.03433   0.00512   0.37500 
C          C       0.02978   0.03378   0.37500 
C          C       0.00764   0.94127   0.37500 
C          C       0.97771   0.90781   0.37500 
C          C       0.94656   0.90425   0.37500 
C          C       0.94241   0.93229   0.37500 
H          H       0.03140   0.94209   0.37500 
O          O       0.97719   0.87738   0.37500 
O          O       0.92099   0.87070   0.37500 
H          H       0.91689   0.92710   0.37500 
C          C       0.39382   0.31346   0.37500 
C          C       0.39363   0.34373   0.37500 
C          C       0.36395   0.34399   0.37500 
C          C       0.33406   0.31375   0.37500 
C          C       0.33406   0.28276   0.37500 
C          C       0.36335   0.28109   0.37500 
C          C       0.30477   0.25179   0.37500 
C          C       0.27430   0.25371   0.37500 
C          C       0.27448   0.28416   0.37500 
C          C       0.30416   0.31410   0.37500 
C          C       0.35276   0.24327   0.37500 
C          C       0.31540   0.22459   0.37500 
C          C       0.29644   0.18703   0.37500 
C          C       0.31691   0.17258   0.37500 
C          C       0.35129   0.18978   0.37500 
C          C       0.37175   0.22470   0.37500 
C          C       0.25785   0.15970   0.37500 
C          C       0.41036   0.23596   0.37500 
C          C       0.23324   0.16842   0.37500 
C          C       0.19861   0.14621   0.37500 
C          C       0.18593   0.11173   0.37500 
C          C       0.20919   0.10056   0.37500 
C          C       0.24418   0.12375   0.37500 
C          C       0.43503   0.26929   0.37500 
C          C       0.46967   0.28165   0.37500 
C          C       0.48229   0.25979   0.37500 
C          C       0.45896   0.22537   0.37500 
C          C       0.42398   0.21365   0.37500 
B          B       0.14632   0.08719   0.37500 
B          B       0.52191   0.27472   0.37500 
H          H       0.65527   0.40521   0.37500 
H          H       0.75531   0.39180   0.37500 
H          H       0.41948   0.32113   0.37500 
H          H       0.41701   0.36753   0.37500 
H          H       0.36440   0.36780   0.37500 
H          H       0.24861   0.23572   0.37500 
H          H       0.25111   0.28459   0.37500 
H          H       0.30371   0.33744   0.37500 
H          H       0.30717   0.14611   0.37500 
H          H       0.36101   0.17303   0.37500 
H          H       0.24114   0.19259   0.37500 
H          H       0.18185   0.15640   0.37500 
H          H       0.20047   0.07388   0.37500 
H          H       0.25896   0.11166   0.37500 
H          H       0.42724   0.28565   0.37500 
H          H       0.48649   0.30858   0.37500 
H          H       0.46761   0.20737   0.37500 
H          H       0.40919   0.18678   0.37500 
C          C       0.66277   0.30033   0.37500 
C          C       0.69586   0.32951   0.37500 
C          C       0.60026   0.27567   0.37500 
C          C       0.57239   0.28008   0.37500 
C          C       0.57623   0.31141   0.37500 
C          C       0.60792   0.34001   0.37500 
O          O       0.53875   0.25467   0.37500 
O          O       0.54581   0.31100   0.37500 
C          C       0.99488   0.02921   0.37500 
C          C       0.96622   0.99600   0.37500 
C          C       0.05873   0.06637   0.37500 
C          C       0.09219   0.06990   0.37500 
C          C       0.09575   0.04231   0.37500 
C          C       0.06771   0.01012   0.37500 
H          H       0.05791   0.08931   0.37500 
O          O       0.12262   0.09981   0.37500 
O          O       0.12930   0.05029   0.37500 
H          H       0.07290   0.98979   0.37500 
C          C       0.68654   0.08036   0.37500 
C          C       0.65627   0.04990   0.37500 
C          C       0.65601   0.01996   0.37500 
C          C       0.68625   0.02031   0.37500 
C          C       0.71724   0.05130   0.37500 
C          C       0.71891   0.08226   0.37500 
C          C       0.74821   0.05298   0.37500 
C          C       0.74629   0.02059   0.37500 
C          C       0.71584   0.99032   0.37500 
C          C       0.68590   0.99006   0.37500 
C          C       0.75673   0.10949   0.37500 
C          C       0.77541   0.09081   0.37500 
C          C       0.81297   0.10941   0.37500 
C          C       0.82742   0.14433   0.37500 
C          C       0.81022   0.16151   0.37500 
C          C       0.77530   0.14705   0.37500 
C          C       0.84030   0.09815   0.37500 
C          C       0.76404   0.17440   0.37500 
C          C       0.83158   0.06482   0.37500 
C          C       0.85379   0.05240   0.37500 
C          C       0.88827   0.07420   0.37500 
C          C       0.89944   0.10863   0.37500 
C          C       0.87625   0.12043   0.37500 
C          C       0.73071   0.16574   0.37500 
C          C       0.71835   0.18802   0.37500 
C          C       0.74021   0.22250   0.37500 
C          C       0.77463   0.23359   0.37500 
C          C       0.78635   0.21033   0.37500 
B          B       0.91281   0.05913   0.37500 
B          B       0.72528   0.24719   0.37500 
H          H       0.59479   0.25006   0.37500 
H          H       0.60820   0.36351   0.37500 
H          H       0.67887   0.09835   0.37500 
H          H       0.63247   0.04948   0.37500 
H          H       0.63220   0.99660   0.37500 
H          H       0.76428   0.01289   0.37500 
H          H       0.71541   0.96652   0.37500 
H          H       0.66256   0.96627   0.37500 
H          H       0.85389   0.16106   0.37500 
H          H       0.82697   0.18798   0.37500 
H          H       0.80741   0.04855   0.37500 
H          H       0.84360   0.02545   0.37500 
H          H       0.92612   0.12659   0.37500 
H          H       0.88834   0.14730   0.37500 
H          H       0.71435   0.14159   0.37500 
H          H       0.69142   0.17791   0.37500 
H          H       0.79263   0.26024   0.37500 
H          H       0.81322   0.22241   0.37500 
C          C       0.69967   0.36244   0.37500 
C          C       0.67049   0.36635   0.37500 
C          C       0.72433   0.32459   0.37500 
C          C       0.71992   0.29231   0.37500 
C          C       0.68859   0.26482   0.37500 
C          C       0.65999   0.26791   0.37500 
O          O       0.74533   0.28408   0.37500 
O          O       0.68900   0.23481   0.37500 
C          C       0.97079   0.96567   0.37500 
C          C       0.00400   0.97022   0.37500 
C          C       0.93363   0.99236   0.37500 
C          C       0.93010   0.02229   0.37500 
C          C       0.95769   0.05344   0.37500 
C          C       0.98988   0.05759   0.37500 
H          H       0.91069   0.96860   0.37500 
O          O       0.90019   0.02281   0.37500 
O          O       0.94971   0.07901   0.37500 
H          H       0.01021   0.08311   0.37500 
C          C       0.91964   0.60618   0.37500 
C          C       0.95010   0.60637   0.37500 
C          C       0.98004   0.63605   0.37500 
C          C       0.97969   0.66594   0.37500 
C          C       0.94870   0.66594   0.37500 
C          C       0.91774   0.63665   0.37500 
C          C       0.94702   0.69523   0.37500 
C          C       0.97941   0.72570   0.37500 
C          C       0.00968   0.72552   0.37500 
C          C       0.00994   0.69584   0.37500 
C          C       0.89051   0.64724   0.37500 
C          C       0.90919   0.68460   0.37500 
C          C       0.89059   0.70356   0.37500 
C          C       0.85567   0.68309   0.37500 
C          C       0.83849   0.64871   0.37500 
C          C       0.85295   0.62825   0.37500 
C          C       0.90185   0.74215   0.37500 
C          C       0.82560   0.58964   0.37500 
C          C       0.93518   0.76676   0.37500 
C          C       0.94760   0.80139   0.37500 
C          C       0.92580   0.81407   0.37500 
C          C       0.89137   0.79081   0.37500 
C          C       0.87957   0.75582   0.37500 
C          C       0.83426   0.56497   0.37500 
C          C       0.81198   0.53033   0.37500 
C          C       0.77750   0.51771   0.37500 
C          C       0.76641   0.54104   0.37500 
C          C       0.78967   0.57602   0.37500 
B          B       0.94087   0.85368   0.37500 
B          B       0.75281   0.47809   0.37500 
H          H       0.74994   0.34473   0.37500 
H          H       0.63649   0.24469   0.37500 
H          H       0.90165   0.58052   0.37500 
H          H       0.95052   0.58299   0.37500 
H          H       0.00340   0.63560   0.37500 
H          H       0.98711   0.75139   0.37500 
H          H       0.03348   0.74889   0.37500 
H          H       0.03373   0.69629   0.37500 
H          H       0.83894   0.69283   0.37500 
H          H       0.81202   0.63899   0.37500 
H          H       0.95145   0.75886   0.37500 
H          H       0.97455   0.81815   0.37500 
H          H       0.87341   0.79953   0.37500 
H          H       0.85270   0.74104   0.37500 
H          H       0.85841   0.57276   0.37500 
H          H       0.82209   0.51351   0.37500 
H          H       0.73976   0.53239   0.37500 
H          H       0.77759   0.59081   0.37500 
C          C       0.36244   0.66277   0.62500 
C          C       0.36635   0.69586   0.62500 
C          C       0.32459   0.60026   0.62500 
C          C       0.29231   0.57239   0.62500 
C          C       0.26482   0.57623   0.62500 
C          C       0.26791   0.60792   0.62500 
O          O       0.28408   0.53875   0.62500 
O          O       0.23481   0.54581   0.62500 
C          C       0.96567   0.99488   0.62500 
C          C       0.97022   0.96622   0.62500 
C          C       0.99236   0.05873   0.62500 
C          C       0.02229   0.09219   0.62500 
C          C       0.05344   0.09575   0.62500 
C          C       0.05759   0.06771   0.62500 
H          H       0.96860   0.05791   0.62500 
O          O       0.02281   0.12262   0.62500 
O          O       0.07901   0.12930   0.62500 
H          H       0.08311   0.07290   0.62500 
C          C       0.60618   0.68654   0.62500 
C          C       0.60637   0.65627   0.62500 
C          C       0.63605   0.65601   0.62500 
C          C       0.66594   0.68625   0.62500 
C          C       0.66594   0.71724   0.62500 
C          C       0.63665   0.71891   0.62500 
C          C       0.69523   0.74821   0.62500 
C          C       0.72570   0.74629   0.62500 
C          C       0.72552   0.71584   0.62500 
C          C       0.69584   0.68590   0.62500 
C          C       0.64724   0.75673   0.62500 
C          C       0.68460   0.77541   0.62500 
C          C       0.70356   0.81297   0.62500 
C          C       0.68309   0.82742   0.62500 
C          C       0.64871   0.81022   0.62500 
C          C       0.62825   0.77530   0.62500 
C          C       0.74215   0.84030   0.62500 
C          C       0.58964   0.76404   0.62500 
C          C       0.76676   0.83158   0.62500 
C          C       0.80139   0.85379   0.62500 
C          C       0.81407   0.88827   0.62500 
C          C       0.79081   0.89944   0.62500 
C          C       0.75582   0.87625   0.62500 
C          C       0.56497   0.73071   0.62500 
C          C       0.53033   0.71835   0.62500 
C          C       0.51771   0.74021   0.62500 
C          C       0.54104   0.77463   0.62500 
C          C       0.57602   0.78635   0.62500 
B          B       0.85368   0.91281   0.62500 
B          B       0.47809   0.72528   0.62500 
H          H       0.34473   0.59479   0.62500 
H          H       0.24469   0.60820   0.62500 
H          H       0.58052   0.67887   0.62500 
H          H       0.58299   0.63247   0.62500 
H          H       0.63560   0.63220   0.62500 
H          H       0.75139   0.76428   0.62500 
H          H       0.74889   0.71541   0.62500 
H          H       0.69629   0.66256   0.62500 
H          H       0.69283   0.85389   0.62500 
H          H       0.63899   0.82697   0.62500 
H          H       0.75886   0.80741   0.62500 
H          H       0.81815   0.84360   0.62500 
H          H       0.79953   0.92612   0.62500 
H          H       0.74104   0.88834   0.62500 
H          H       0.57276   0.71435   0.62500 
H          H       0.51351   0.69142   0.62500 
H          H       0.53239   0.79263   0.62500 
H          H       0.59081   0.81322   0.62500 
C          C       0.33723   0.69967   0.62500 
C          C       0.30414   0.67049   0.62500 
C          C       0.39974   0.72433   0.62500 
C          C       0.42761   0.71992   0.62500 
C          C       0.42377   0.68859   0.62500 
C          C       0.39208   0.65999   0.62500 
O          O       0.46125   0.74533   0.62500 
O          O       0.45419   0.68900   0.62500 
C          C       0.00512   0.97079   0.62500 
C          C       0.03378   0.00400   0.62500 
C          C       0.94127   0.93363   0.62500 
C          C       0.90781   0.93010   0.62500 
C          C       0.90425   0.95769   0.62500 
C          C       0.93229   0.98988   0.62500 
H          H       0.94209   0.91069   0.62500 
O          O       0.87738   0.90019   0.62500 
O          O       0.87070   0.94971   0.62500 
H          H       0.92710   0.01021   0.62500 
C          C       0.31346   0.91964   0.62500 
C          C       0.34373   0.95010   0.62500 
C          C       0.34399   0.98004   0.62500 
C          C       0.31375   0.97969   0.62500 
C          C       0.28276   0.94870   0.62500 
C          C       0.28109   0.91774   0.62500 
C          C       0.25179   0.94702   0.62500 
C          C       0.25371   0.97941   0.62500 
C          C       0.28416   0.00968   0.62500 
C          C       0.31410   0.00994   0.62500 
C          C       0.24327   0.89051   0.62500 
C          C       0.22459   0.90919   0.62500 
C          C       0.18703   0.89059   0.62500 
C          C       0.17258   0.85567   0.62500 
C          C       0.18978   0.83849   0.62500 
C          C       0.22470   0.85295   0.62500 
C          C       0.15970   0.90185   0.62500 
C          C       0.23596   0.82560   0.62500 
C          C       0.16842   0.93518   0.62500 
C          C       0.14621   0.94760   0.62500 
C          C       0.11173   0.92580   0.62500 
C          C       0.10056   0.89137   0.62500 
C          C       0.12375   0.87957   0.62500 
C          C       0.26929   0.83426   0.62500 
C          C       0.28165   0.81198   0.62500 
C          C       0.25979   0.77750   0.62500 
C          C       0.22537   0.76641   0.62500 
C          C       0.21365   0.78967   0.62500 
B          B       0.08719   0.94087   0.62500 
B          B       0.27472   0.75281   0.62500 
H          H       0.40521   0.74994   0.62500 
H          H       0.39180   0.63649   0.62500 
H          H       0.32113   0.90165   0.62500 
H          H       0.36753   0.95052   0.62500 
H          H       0.36780   0.00340   0.62500 
H          H       0.23572   0.98711   0.62500 
H          H       0.28459   0.03348   0.62500 
H          H       0.33744   0.03373   0.62500 
H          H       0.14611   0.83894   0.62500 
H          H       0.17303   0.81202   0.62500 
H          H       0.19259   0.95145   0.62500 
H          H       0.15640   0.97455   0.62500 
H          H       0.07388   0.87341   0.62500 
H          H       0.11166   0.85270   0.62500 
H          H       0.28565   0.85841   0.62500 
H          H       0.30858   0.82209   0.62500 
H          H       0.20737   0.73976   0.62500 
H          H       0.18678   0.77759   0.62500 
C          C       0.30033   0.63756   0.62500 
C          C       0.32951   0.63365   0.62500 
C          C       0.27567   0.67541   0.62500 
C          C       0.28008   0.70769   0.62500 
C          C       0.31141   0.73518   0.62500 
C          C       0.34001   0.73209   0.62500 
O          O       0.25467   0.71592   0.62500 
O          O       0.31100   0.76519   0.62500 
C          C       0.02921   0.03433   0.62500 
C          C       0.99600   0.02978   0.62500 
C          C       0.06637   0.00764   0.62500 
C          C       0.06990   0.97771   0.62500 
C          C       0.04231   0.94656   0.62500 
C          C       0.01012   0.94241   0.62500 
H          H       0.08931   0.03140   0.62500 
O          O       0.09981   0.97719   0.62500 
O          O       0.05029   0.92099   0.62500 
H          H       0.98979   0.91689   0.62500 
C          C       0.08036   0.39382   0.62500 
C          C       0.04990   0.39363   0.62500 
C          C       0.01996   0.36395   0.62500 
C          C       0.02031   0.33406   0.62500 
C          C       0.05130   0.33406   0.62500 
C          C       0.08226   0.36335   0.62500 
C          C       0.05298   0.30477   0.62500 
C          C       0.02059   0.27430   0.62500 
C          C       0.99032   0.27448   0.62500 
C          C       0.99006   0.30416   0.62500 
C          C       0.10949   0.35276   0.62500 
C          C       0.09081   0.31540   0.62500 
C          C       0.10941   0.29644   0.62500 
C          C       0.14433   0.31691   0.62500 
C          C       0.16151   0.35129   0.62500 
C          C       0.14705   0.37175   0.62500 
C          C       0.09815   0.25785   0.62500 
C          C       0.17440   0.41036   0.62500 
C          C       0.06482   0.23324   0.62500 
C          C       0.05240   0.19861   0.62500 
C          C       0.07420   0.18593   0.62500 
C          C       0.10863   0.20919   0.62500 
C          C       0.12043   0.24418   0.62500 
C          C       0.16574   0.43503   0.62500 
C          C       0.18802   0.46967   0.62500 
C          C       0.22250   0.48229   0.62500 
C          C       0.23359   0.45896   0.62500 
C          C       0.21033   0.42398   0.62500 
B          B       0.05913   0.14632   0.62500 
B          B       0.24719   0.52191   0.62500 
H          H       0.25006   0.65527   0.62500 
H          H       0.36351   0.75531   0.62500 
H          H       0.09835   0.41948   0.62500 
H          H       0.04948   0.41701   0.62500 
H          H       0.99660   0.36440   0.62500 
H          H       0.01289   0.24861   0.62500 
H          H       0.96652   0.25111   0.62500 
H          H       0.96627   0.30371   0.62500 
H          H       0.16106   0.30717   0.62500 
H          H       0.18798   0.36101   0.62500 
H          H       0.04855   0.24114   0.62500 
H          H       0.02545   0.18185   0.62500 
H          H       0.12659   0.20047   0.62500 
H          H       0.14730   0.25896   0.62500 
H          H       0.14159   0.42724   0.62500 
H          H       0.17791   0.48649   0.62500 
H          H       0.26024   0.46761   0.62500 
H          H       0.22241   0.40919   0.62500 
C          C       0.63756   0.33723   0.87500 
C          C       0.63365   0.30414   0.87500 
C          C       0.67541   0.39974   0.87500 
C          C       0.70769   0.42761   0.87500 
C          C       0.73518   0.42377   0.87500 
C          C       0.73209   0.39208   0.87500 
O          O       0.71592   0.46125   0.87500 
O          O       0.76519   0.45419   0.87500 
C          C       0.03433   0.00512   0.87500 
C          C       0.02978   0.03378   0.87500 
C          C       0.00764   0.94127   0.87500 
C          C       0.97771   0.90781   0.87500 
C          C       0.94656   0.90425   0.87500 
C          C       0.94241   0.93229   0.87500 
H          H       0.03140   0.94209   0.87500 
O          O       0.97719   0.87738   0.87500 
O          O       0.92099   0.87070   0.87500 
H          H       0.91689   0.92710   0.87500 
C          C       0.39382   0.31346   0.87500 
C          C       0.39363   0.34373   0.87500 
C          C       0.36395   0.34399   0.87500 
C          C       0.33406   0.31375   0.87500 
C          C       0.33406   0.28276   0.87500 
C          C       0.36335   0.28109   0.87500 
C          C       0.30477   0.25179   0.87500 
C          C       0.27430   0.25371   0.87500 
C          C       0.27448   0.28416   0.87500 
C          C       0.30416   0.31410   0.87500 
C          C       0.35276   0.24327   0.87500 
C          C       0.31540   0.22459   0.87500 
C          C       0.29644   0.18703   0.87500 
C          C       0.31691   0.17258   0.87500 
C          C       0.35129   0.18978   0.87500 
C          C       0.37175   0.22470   0.87500 
C          C       0.25785   0.15970   0.87500 
C          C       0.41036   0.23596   0.87500 
C          C       0.23324   0.16842   0.87500 
C          C       0.19861   0.14621   0.87500 
C          C       0.18593   0.11173   0.87500 
C          C       0.20919   0.10056   0.87500 
C          C       0.24418   0.12375   0.87500 
C          C       0.43503   0.26929   0.87500 
C          C       0.46967   0.28165   0.87500 
C          C       0.48229   0.25979   0.87500 
C          C       0.45896   0.22537   0.87500 
C          C       0.42398   0.21365   0.87500 
B          B       0.14632   0.08719   0.87500 
B          B       0.52191   0.27472   0.87500 
H          H       0.65527   0.40521   0.87500 
H          H       0.75531   0.39180   0.87500 
H          H       0.41948   0.32113   0.87500 
H          H       0.41701   0.36753   0.87500 
H          H       0.36440   0.36780   0.87500 
H          H       0.24861   0.23572   0.87500 
H          H       0.25111   0.28459   0.87500 
H          H       0.30371   0.33744   0.87500 
H          H       0.30717   0.14611   0.87500 
H          H       0.36101   0.17303   0.87500 
H          H       0.24114   0.19259   0.87500 
H          H       0.18185   0.15640   0.87500 
H          H       0.20047   0.07388   0.87500 
H          H       0.25896   0.11166   0.87500 
H          H       0.42724   0.28565   0.87500 
H          H       0.48649   0.30858   0.87500 
H          H       0.46761   0.20737   0.87500 
H          H       0.40919   0.18678   0.87500 
C          C       0.66277   0.30033   0.87500 
C          C       0.69586   0.32951   0.87500 
C          C       0.60026   0.27567   0.87500 
C          C       0.57239   0.28008   0.87500 
C          C       0.57623   0.31141   0.87500 
C          C       0.60792   0.34001   0.87500 
O          O       0.53875   0.25467   0.87500 
O          O       0.54581   0.31100   0.87500 
C          C       0.99488   0.02921   0.87500 
C          C       0.96622   0.99600   0.87500 
C          C       0.05873   0.06637   0.87500 
C          C       0.09219   0.06990   0.87500 
C          C       0.09575   0.04231   0.87500 
C          C       0.06771   0.01012   0.87500 
H          H       0.05791   0.08931   0.87500 
O          O       0.12262   0.09981   0.87500 
O          O       0.12930   0.05029   0.87500 
H          H       0.07290   0.98979   0.87500 
C          C       0.68654   0.08036   0.87500 
C          C       0.65627   0.04990   0.87500 
C          C       0.65601   0.01996   0.87500 
C          C       0.68625   0.02031   0.87500 
C          C       0.71724   0.05130   0.87500 
C          C       0.71891   0.08226   0.87500 
C          C       0.74821   0.05298   0.87500 
C          C       0.74629   0.02059   0.87500 
C          C       0.71584   0.99032   0.87500 
C          C       0.68590   0.99006   0.87500 
C          C       0.75673   0.10949   0.87500 
C          C       0.77541   0.09081   0.87500 
C          C       0.81297   0.10941   0.87500 
C          C       0.82742   0.14433   0.87500 
C          C       0.81022   0.16151   0.87500 
C          C       0.77530   0.14705   0.87500 
C          C       0.84030   0.09815   0.87500 
C          C       0.76404   0.17440   0.87500 
C          C       0.83158   0.06482   0.87500 
C          C       0.85379   0.05240   0.87500 
C          C       0.88827   0.07420   0.87500 
C          C       0.89944   0.10863   0.87500 
C          C       0.87625   0.12043   0.87500 
C          C       0.73071   0.16574   0.87500 
C          C       0.71835   0.18802   0.87500 
C          C       0.74021   0.22250   0.87500 
C          C       0.77463   0.23359   0.87500 
C          C       0.78635   0.21033   0.87500 
B          B       0.91281   0.05913   0.87500 
B          B       0.72528   0.24719   0.87500 
H          H       0.59479   0.25006   0.87500 
H          H       0.60820   0.36351   0.87500 
H          H       0.67887   0.09835   0.87500 
H          H       0.63247   0.04948   0.87500 
H          H       0.63220   0.99660   0.87500 
H          H       0.76428   0.01289   0.87500 
H          H       0.71541   0.96652   0.87500 
H          H       0.66256   0.96627   0.87500 
H          H       0.85389   0.16106   0.87500 
H          H       0.82697   0.18798   0.87500 
H          H       0.80741   0.04855   0.87500 
H          H       0.84360   0.02545   0.87500 
H          H       0.92612   0.12659   0.87500 
H          H       0.88834   0.14730   0.87500 
H          H       0.71435   0.14159   0.87500 
H          H       0.69142   0.17791   0.87500 
H          H       0.79263   0.26024   0.87500 
H          H       0.81322   0.22241   0.87500 
C          C       0.69967   0.36244   0.87500 
C          C       0.67049   0.36635   0.87500 
C          C       0.72433   0.32459   0.87500 
C          C       0.71992   0.29231   0.87500 
C          C       0.68859   0.26482   0.87500 
C          C       0.65999   0.26791   0.87500 
O          O       0.74533   0.28408   0.87500 
O          O       0.68900   0.23481   0.87500 
C          C       0.97079   0.96567   0.87500 
C          C       0.00400   0.97022   0.87500 
C          C       0.93363   0.99236   0.87500 
C          C       0.93010   0.02229   0.87500 
C          C       0.95769   0.05344   0.87500 
C          C       0.98988   0.05759   0.87500 
H          H       0.91069   0.96860   0.87500 
O          O       0.90019   0.02281   0.87500 
O          O       0.94971   0.07901   0.87500 
H          H       0.01021   0.08311   0.87500 
C          C       0.91964   0.60618   0.87500 
C          C       0.95010   0.60637   0.87500 
C          C       0.98004   0.63605   0.87500 
C          C       0.97969   0.66594   0.87500 
C          C       0.94870   0.66594   0.87500 
C          C       0.91774   0.63665   0.87500 
C          C       0.94702   0.69523   0.87500 
C          C       0.97941   0.72570   0.87500 
C          C       0.00968   0.72552   0.87500 
C          C       0.00994   0.69584   0.87500 
C          C       0.89051   0.64724   0.87500 
C          C       0.90919   0.68460   0.87500 
C          C       0.89059   0.70356   0.87500 
C          C       0.85567   0.68309   0.87500 
C          C       0.83849   0.64871   0.87500 
C          C       0.85295   0.62825   0.87500 
C          C       0.90185   0.74215   0.87500 
C          C       0.82560   0.58964   0.87500 
C          C       0.93518   0.76676   0.87500 
C          C       0.94760   0.80139   0.87500 
C          C       0.92580   0.81407   0.87500 
C          C       0.89137   0.79081   0.87500 
C          C       0.87957   0.75582   0.87500 
C          C       0.83426   0.56497   0.87500 
C          C       0.81198   0.53033   0.87500 
C          C       0.77750   0.51771   0.87500 
C          C       0.76641   0.54104   0.87500 
C          C       0.78967   0.57602   0.87500 
B          B       0.94087   0.85368   0.87500 
B          B       0.75281   0.47809   0.87500 
H          H       0.74994   0.34473   0.87500 
H          H       0.63649   0.24469   0.87500 
H          H       0.90165   0.58052   0.87500 
H          H       0.95052   0.58299   0.87500 
H          H       0.00340   0.63560   0.87500 
H          H       0.98711   0.75139   0.87500 
H          H       0.03348   0.74889   0.87500 
H          H       0.03373   0.69629   0.87500 
H          H       0.83894   0.69283   0.87500 
H          H       0.81202   0.63899   0.87500 
H          H       0.95145   0.75886   0.87500 
H          H       0.97455   0.81815   0.87500 
H          H       0.87341   0.79953   0.87500 
H          H       0.85270   0.74104   0.87500 
H          H       0.85841   0.57276   0.87500 
H          H       0.82209   0.51351   0.87500 
H          H       0.73976   0.53239   0.87500 
H          H       0.77759   0.59081   0.87500 
