data_crystal

_cell_length_a    34.06240
_cell_length_b    32.54290
_cell_length_c    7.28960
_cell_angle_alpha 90.00000
_cell_angle_beta  90.00000
_cell_angle_gamma 90.00000

_space_group_name_Hall 'P 1'
_space_group_name_H-M_alt  'P 1'

loop_
_symmetry_equiv_pos_as_xyz
'x,y,z' 

loop_
_atom_site_label
_atom_site_type_symbol
_atom_site_fract_x
_atom_site_fract_y
_atom_site_fract_z
C          C       0.46351   0.95849   0.10555 
C          C       0.53649   0.04151   0.10555 
C          C       0.03649   0.45849   0.39445 
C          C       0.96351   0.54151   0.39445 
C          C       0.03649   0.54151   0.39445 
C          C       0.96351   0.45849   0.39445 
C          C       0.46351   0.04151   0.10555 
C          C       0.53649   0.95849   0.10555 
C          C       0.42815   0.02023   0.10903 
C          C       0.57185   0.97977   0.10903 
C          C       0.07185   0.52023   0.39096 
C          C       0.92815   0.47977   0.39096 
C          C       0.07185   0.47977   0.39096 
C          C       0.92815   0.52023   0.39096 
C          C       0.42815   0.97977   0.10903 
C          C       0.57185   0.02023   0.10903 
C          C       0.46342   0.08290   0.10402 
C          C       0.53658   0.91710   0.10402 
C          C       0.03658   0.58290   0.39598 
C          C       0.96342   0.41710   0.39598 
C          C       0.03658   0.41710   0.39598 
C          C       0.96342   0.58290   0.39598 
C          C       0.46342   0.91710   0.10402 
C          C       0.53658   0.08290   0.10402 
C          C       0.42705   0.10767   0.08322 
C          C       0.57295   0.89233   0.08322 
C          C       0.07295   0.60767   0.41678 
C          C       0.92705   0.39233   0.41678 
C          C       0.07295   0.39233   0.41678 
C          C       0.92705   0.60767   0.41678 
C          C       0.42705   0.89233   0.08322 
C          C       0.57295   0.10767   0.08322 
C          C       0.42310   0.14295   0.16673 
C          C       0.57690   0.85705   0.16673 
C          C       0.07690   0.64295   0.33327 
C          C       0.92310   0.35705   0.33327 
C          C       0.07690   0.35705   0.33327 
C          C       0.92310   0.64295   0.33327 
C          C       0.42310   0.85705   0.16673 
C          C       0.57690   0.14295   0.16673 
C          C       0.39024   0.16716   0.14319 
C          C       0.60976   0.83284   0.14319 
C          C       0.10976   0.66716   0.35681 
C          C       0.89024   0.33284   0.35681 
C          C       0.10976   0.33284   0.35681 
C          C       0.89024   0.66716   0.35681 
C          C       0.39024   0.83284   0.14319 
C          C       0.60976   0.16716   0.14319 
C          C       0.35993   0.15633   0.03809 
C          C       0.64007   0.84367   0.03809 
C          C       0.14007   0.65633   0.46191 
C          C       0.85993   0.34367   0.46191 
C          C       0.14007   0.34367   0.46191 
C          C       0.85993   0.65633   0.46191 
C          C       0.35993   0.84367   0.03809 
C          C       0.64007   0.15633   0.03809 
C          C       0.36406   0.12149   0.45272 
C          C       0.63594   0.87851   0.45272 
C          C       0.13594   0.62149   0.04727 
C          C       0.86406   0.37851   0.04727 
C          C       0.13594   0.37851   0.04727 
C          C       0.86406   0.62149   0.04727 
C          C       0.36406   0.87851   0.45272 
C          C       0.63594   0.12149   0.45272 
C          C       0.39795   0.09841   0.47025 
C          C       0.60205   0.90159   0.47025 
C          C       0.10205   0.59841   0.02974 
C          C       0.89795   0.40159   0.02974 
C          C       0.10205   0.40159   0.02974 
C          C       0.89795   0.59841   0.02974 
C          C       0.39795   0.90159   0.47025 
C          C       0.60205   0.09841   0.47025 
C          C       0.32464   0.18156   0.01600 
C          C       0.67536   0.81844   0.01600 
C          C       0.17536   0.68156   0.48400 
C          C       0.82464   0.31844   0.48400 
C          C       0.17536   0.31844   0.48400 
C          C       0.82464   0.68156   0.48400 
C          C       0.32464   0.81844   0.01600 
C          C       0.67536   0.18156   0.01600 
C          C       0.78659   0.26492   0.45788 
C          C       0.21341   0.73508   0.45788 
C          C       0.71341   0.76492   0.04212 
C          C       0.28659   0.23508   0.04212 
C          C       0.71341   0.23508   0.04212 
C          C       0.28659   0.76492   0.04212 
C          C       0.78659   0.73508   0.45788 
C          C       0.21341   0.26492   0.45788 
C          C       0.77647   0.22731   0.40752 
C          C       0.22353   0.77269   0.40752 
C          C       0.72353   0.72731   0.09248 
C          C       0.27647   0.27269   0.09248 
C          C       0.72353   0.27269   0.09248 
C          C       0.27647   0.72731   0.09248 
C          C       0.77647   0.77269   0.40752 
C          C       0.22353   0.22731   0.40752 
N          N       0.32296   0.21626   0.07697 
N          N       0.67704   0.78374   0.07697 
N          N       0.17704   0.71626   0.42303 
N          N       0.82296   0.28374   0.42303 
N          N       0.17704   0.28374   0.42303 
N          N       0.82296   0.71626   0.42303 
N          N       0.32296   0.78374   0.07697 
N          N       0.67704   0.21626   0.07697 
C          C       0.26079   0.78703   0.45219 
C          C       0.73921   0.21297   0.45219 
C          C       0.23921   0.28703   0.04781 
C          C       0.76079   0.71297   0.04781 
C          C       0.23921   0.71297   0.04781 
C          C       0.76079   0.28703   0.04781 
C          C       0.26079   0.21297   0.45219 
C          C       0.73921   0.78703   0.45219 
S          S       0.78089   0.66607   0.09558 
S          S       0.21911   0.33393   0.09558 
S          S       0.71911   0.16607   0.40442 
S          S       0.28089   0.83393   0.40442 
S          S       0.71911   0.83393   0.40442 
S          S       0.28089   0.16607   0.40442 
S          S       0.78089   0.33393   0.09558 
S          S       0.21911   0.66607   0.09558 
H          H       0.79657   0.21007   0.33646 
H          H       0.20343   0.78993   0.33646 
H          H       0.70343   0.71007   0.16354 
H          H       0.29657   0.28993   0.16354 
H          H       0.70343   0.28993   0.16354 
H          H       0.29657   0.71007   0.16354 
H          H       0.79657   0.78993   0.33646 
H          H       0.20343   0.21007   0.33646 
H          H       0.39841   0.03611   0.11196 
H          H       0.60159   0.96389   0.11196 
H          H       0.10159   0.53611   0.38804 
H          H       0.89841   0.46389   0.38804 
H          H       0.10159   0.46389   0.38804 
H          H       0.89841   0.53611   0.38804 
H          H       0.39841   0.96389   0.11196 
H          H       0.60159   0.03611   0.11196 
H          H       0.44509   0.15155   0.25322 
H          H       0.55491   0.84845   0.25322 
H          H       0.05491   0.65155   0.24677 
H          H       0.94509   0.34845   0.24677 
H          H       0.05491   0.34845   0.24677 
H          H       0.94509   0.65155   0.24677 
H          H       0.44509   0.84845   0.25322 
H          H       0.55491   0.15155   0.25322 
H          H       0.38812   0.19387   0.21084 
H          H       0.61188   0.80613   0.21084 
H          H       0.11188   0.69387   0.28916 
H          H       0.88812   0.30613   0.28916 
H          H       0.11188   0.30613   0.28916 
H          H       0.88812   0.69387   0.28916 
H          H       0.38812   0.80613   0.21084 
H          H       0.61188   0.19387   0.21084 
H          H       0.34204   0.11273   0.36684 
H          H       0.65796   0.88727   0.36684 
H          H       0.15796   0.61273   0.13316 
H          H       0.84204   0.38727   0.13316 
H          H       0.15796   0.38727   0.13316 
H          H       0.84204   0.61273   0.13316 
H          H       0.34204   0.88727   0.36684 
H          H       0.65796   0.11273   0.36684 
H          H       0.40151   0.07338   0.39367 
H          H       0.59849   0.92662   0.39367 
H          H       0.09849   0.57338   0.10632 
H          H       0.90151   0.42662   0.10632 
H          H       0.09849   0.42662   0.10632 
H          H       0.90151   0.57338   0.10632 
H          H       0.40151   0.92662   0.39367 
H          H       0.59849   0.07338   0.39367 
C          C       0.50000   0.10218   0.10340 
C          C       0.50000   0.89782   0.10340 
C          C       0.00000   0.60218   0.39660 
C          C       0.00000   0.39782   0.39660 
C          C       0.50000   0.97919   0.10522 
C          C       0.50000   0.02081   0.10522 
C          C       0.00000   0.47919   0.39478 
C          C      -0.00000   0.52081   0.39478 
H          H       0.50000   0.13542   0.10232 
H          H       0.50000   0.86458   0.10232 
H          H      -0.00000   0.63542   0.39768 
H          H      -0.00000   0.36458   0.39768 
C          C       0.46351   0.95849   0.60555 
C          C       0.53649   0.04151   0.60555 
C          C       0.03649   0.45849   0.89445 
C          C       0.96351   0.54151   0.89445 
C          C       0.03649   0.54151   0.89445 
C          C       0.96351   0.45849   0.89445 
C          C       0.46351   0.04151   0.60555 
C          C       0.53649   0.95849   0.60555 
C          C       0.42815   0.02023   0.60903 
C          C       0.57185   0.97977   0.60903 
C          C       0.07185   0.52023   0.89096 
C          C       0.92815   0.47977   0.89096 
C          C       0.07185   0.47977   0.89096 
C          C       0.92815   0.52023   0.89096 
C          C       0.42815   0.97977   0.60903 
C          C       0.57185   0.02023   0.60903 
C          C       0.46342   0.08290   0.60402 
C          C       0.53658   0.91710   0.60402 
C          C       0.03658   0.58290   0.89598 
C          C       0.96342   0.41710   0.89598 
C          C       0.03658   0.41710   0.89598 
C          C       0.96342   0.58290   0.89598 
C          C       0.46342   0.91710   0.60402 
C          C       0.53658   0.08290   0.60402 
C          C       0.42705   0.10767   0.58322 
C          C       0.57295   0.89233   0.58322 
C          C       0.07295   0.60767   0.91678 
C          C       0.92705   0.39233   0.91678 
C          C       0.07295   0.39233   0.91678 
C          C       0.92705   0.60767   0.91678 
C          C       0.42705   0.89233   0.58322 
C          C       0.57295   0.10767   0.58322 
C          C       0.42310   0.14295   0.66673 
C          C       0.57690   0.85705   0.66673 
C          C       0.07690   0.64295   0.83327 
C          C       0.92310   0.35705   0.83327 
C          C       0.07690   0.35705   0.83327 
C          C       0.92310   0.64295   0.83327 
C          C       0.42310   0.85705   0.66673 
C          C       0.57690   0.14295   0.66673 
C          C       0.39024   0.16716   0.64319 
C          C       0.60976   0.83284   0.64319 
C          C       0.10976   0.66716   0.85681 
C          C       0.89024   0.33284   0.85681 
C          C       0.10976   0.33284   0.85681 
C          C       0.89024   0.66716   0.85681 
C          C       0.39024   0.83284   0.64319 
C          C       0.60976   0.16716   0.64319 
C          C       0.35993   0.15633   0.53809 
C          C       0.64007   0.84367   0.53809 
C          C       0.14007   0.65633   0.96191 
C          C       0.85993   0.34367   0.96191 
C          C       0.14007   0.34367   0.96191 
C          C       0.85993   0.65633   0.96191 
C          C       0.35993   0.84367   0.53809 
C          C       0.64007   0.15633   0.53809 
C          C       0.36406   0.12149   0.95273 
C          C       0.63594   0.87851   0.95273 
C          C       0.13594   0.62149   0.54727 
C          C       0.86406   0.37851   0.54727 
C          C       0.13594   0.37851   0.54727 
C          C       0.86406   0.62149   0.54727 
C          C       0.36406   0.87851   0.95273 
C          C       0.63594   0.12149   0.95273 
C          C       0.39795   0.09841   0.97025 
C          C       0.60205   0.90159   0.97025 
C          C       0.10205   0.59841   0.52974 
C          C       0.89795   0.40159   0.52974 
C          C       0.10205   0.40159   0.52974 
C          C       0.89795   0.59841   0.52974 
C          C       0.39795   0.90159   0.97025 
C          C       0.60205   0.09841   0.97025 
C          C       0.32464   0.18156   0.51600 
C          C       0.67536   0.81844   0.51600 
C          C       0.17536   0.68156   0.98400 
C          C       0.82464   0.31844   0.98400 
C          C       0.17536   0.31844   0.98400 
C          C       0.82464   0.68156   0.98400 
C          C       0.32464   0.81844   0.51600 
C          C       0.67536   0.18156   0.51600 
C          C       0.78659   0.26492   0.95788 
C          C       0.21341   0.73508   0.95788 
C          C       0.71341   0.76492   0.54212 
C          C       0.28659   0.23508   0.54212 
C          C       0.71341   0.23508   0.54212 
C          C       0.28659   0.76492   0.54212 
C          C       0.78659   0.73508   0.95788 
C          C       0.21341   0.26492   0.95788 
C          C       0.77647   0.22731   0.90752 
C          C       0.22353   0.77269   0.90752 
C          C       0.72353   0.72731   0.59248 
C          C       0.27647   0.27269   0.59248 
C          C       0.72353   0.27269   0.59248 
C          C       0.27647   0.72731   0.59248 
C          C       0.77647   0.77269   0.90752 
C          C       0.22353   0.22731   0.90752 
N          N       0.32296   0.21626   0.57696 
N          N       0.67704   0.78374   0.57696 
N          N       0.17704   0.71626   0.92303 
N          N       0.82296   0.28374   0.92303 
N          N       0.17704   0.28374   0.92303 
N          N       0.82296   0.71626   0.92303 
N          N       0.32296   0.78374   0.57696 
N          N       0.67704   0.21626   0.57696 
C          C       0.26079   0.78703   0.95219 
C          C       0.73921   0.21297   0.95219 
C          C       0.23921   0.28703   0.54781 
C          C       0.76079   0.71297   0.54781 
C          C       0.23921   0.71297   0.54781 
C          C       0.76079   0.28703   0.54781 
C          C       0.26079   0.21297   0.95219 
C          C       0.73921   0.78703   0.95219 
S          S       0.78089   0.66607   0.59558 
S          S       0.21911   0.33393   0.59558 
S          S       0.71911   0.16607   0.90442 
S          S       0.28089   0.83393   0.90442 
S          S       0.71911   0.83393   0.90442 
S          S       0.28089   0.16607   0.90442 
S          S       0.78089   0.33393   0.59558 
S          S       0.21911   0.66607   0.59558 
H          H       0.79657   0.21007   0.83646 
H          H       0.20343   0.78993   0.83646 
H          H       0.70343   0.71007   0.66354 
H          H       0.29657   0.28993   0.66354 
H          H       0.70343   0.28993   0.66354 
H          H       0.29657   0.71007   0.66354 
H          H       0.79657   0.78993   0.83646 
H          H       0.20343   0.21007   0.83646 
H          H       0.39841   0.03611   0.61196 
H          H       0.60159   0.96389   0.61196 
H          H       0.10159   0.53611   0.88804 
H          H       0.89841   0.46389   0.88804 
H          H       0.10159   0.46389   0.88804 
H          H       0.89841   0.53611   0.88804 
H          H       0.39841   0.96389   0.61196 
H          H       0.60159   0.03611   0.61196 
H          H       0.44509   0.15155   0.75322 
H          H       0.55491   0.84845   0.75322 
H          H       0.05491   0.65155   0.74677 
H          H       0.94509   0.34845   0.74677 
H          H       0.05491   0.34845   0.74677 
H          H       0.94509   0.65155   0.74677 
H          H       0.44509   0.84845   0.75322 
H          H       0.55491   0.15155   0.75322 
H          H       0.38812   0.19387   0.71084 
H          H       0.61188   0.80613   0.71084 
H          H       0.11188   0.69387   0.78916 
H          H       0.88812   0.30613   0.78916 
H          H       0.11188   0.30613   0.78916 
H          H       0.88812   0.69387   0.78916 
H          H       0.38812   0.80613   0.71084 
H          H       0.61188   0.19387   0.71084 
H          H       0.34204   0.11273   0.86684 
H          H       0.65796   0.88727   0.86684 
H          H       0.15796   0.61273   0.63316 
H          H       0.84204   0.38727   0.63316 
H          H       0.15796   0.38727   0.63316 
H          H       0.84204   0.61273   0.63316 
H          H       0.34204   0.88727   0.86684 
H          H       0.65796   0.11273   0.86684 
H          H       0.40151   0.07338   0.89367 
H          H       0.59849   0.92662   0.89367 
H          H       0.09849   0.57338   0.60632 
H          H       0.90151   0.42662   0.60632 
H          H       0.09849   0.42662   0.60632 
H          H       0.90151   0.57338   0.60632 
H          H       0.40151   0.92662   0.89367 
H          H       0.59849   0.07338   0.89367 
C          C       0.50000   0.10218   0.60340 
C          C       0.50000   0.89782   0.60340 
C          C       0.00000   0.60218   0.89660 
C          C      -0.00000   0.39782   0.89660 
C          C       0.50000   0.97919   0.60521 
C          C       0.50000   0.02081   0.60521 
C          C       0.00000   0.47919   0.89478 
C          C      -0.00000   0.52081   0.89478 
H          H       0.50000   0.13542   0.60232 
H          H       0.50000   0.86458   0.60232 
H          H       0.00000   0.63542   0.89768 
H          H      -0.00000   0.36458   0.89768 
