data_crystal
 
_cell_length_a    27.83800
_cell_length_b    27.83800
_cell_length_c    7.51320
_cell_angle_alpha 90.00000
_cell_angle_beta  90.00000
_cell_angle_gamma 90.00000
 
_symmetry_space_group_name_Hall 'P 1'
_symmetry_space_group_name_H-M  'P 1'
 
loop_
_symmetry_equiv_pos_as_xyz
 'x,y,z' 
 
loop_
_atom_site_label
_atom_site_type_symbol
_atom_site_fract_x
_atom_site_fract_y
_atom_site_fract_z
_atom_site_charge
C          C       0.25000   0.25000   0.25000   0.0000000000
C          C       0.75000   0.75000   0.75000   0.0000000000
C          C       0.28010   0.27810   0.37900   0.0000000000
C          C       0.71990   0.72190   0.62100   0.0000000000
C          C       0.21990   0.22190   0.37900   0.0000000000
C          C       0.78010   0.77810   0.62100   0.0000000000
C          C       0.72190   0.78010   0.87900   0.0000000000
C          C       0.27810   0.21990   0.12100   0.0000000000
C          C       0.77810   0.71990   0.87900   0.0000000000
C          C       0.22190   0.28010   0.12100   0.0000000000
C          C       0.30620   0.25100   0.50100   0.0000000000
C          C       0.69380   0.74900   0.49900   0.0000000000
C          C       0.19380   0.24900   0.50100   0.0000000000
C          C       0.80620   0.75100   0.49900   0.0000000000
C          C       0.74900   0.80620   0.00100   0.0000000000
C          C       0.25100   0.19380   0.99900   0.0000000000
C          C       0.75100   0.69380   0.00100   0.0000000000
C          C       0.24900   0.30620   0.99900   0.0000000000
H          H       0.30430   0.21770   0.49910   0.0000000000
H          H       0.69570   0.78230   0.50090   0.0000000000
H          H       0.19570   0.28230   0.49910   0.0000000000
H          H       0.80430   0.71770   0.50090   0.0000000000
H          H       0.21770   0.19570   0.00090   0.0000000000
H          H       0.28230   0.30430   0.00090   0.0000000000
C          C       0.33520   0.27380   0.62600   0.0000000000
C          C       0.66480   0.72620   0.37400   0.0000000000
C          C       0.16480   0.22620   0.62600   0.0000000000
C          C       0.83520   0.77380   0.37400   0.0000000000
C          C       0.72620   0.83520   0.12600   0.0000000000
C          C       0.27380   0.16480   0.87400   0.0000000000
C          C       0.77380   0.66480   0.12600   0.0000000000
C          C       0.22620   0.33520   0.87400   0.0000000000
H          H       0.35270   0.25570   0.70740   0.0000000000
H          H       0.64730   0.74430   0.29260   0.0000000000
H          H       0.14730   0.24430   0.70740   0.0000000000
H          H       0.85270   0.75570   0.29260   0.0000000000
H          H       0.74430   0.85270   0.20740   0.0000000000
H          H       0.25570   0.14730   0.79260   0.0000000000
H          H       0.75570   0.64730   0.20740   0.0000000000
H          H       0.24430   0.35270   0.79260   0.0000000000
C          C       0.33810   0.32370   0.62900   0.0000000000
C          C       0.66190   0.67630   0.37100   0.0000000000
C          C       0.16190   0.17630   0.62900   0.0000000000
C          C       0.83810   0.82370   0.37100   0.0000000000
C          C       0.67630   0.83810   0.12900   0.0000000000
C          C       0.32370   0.16190   0.87100   0.0000000000
C          C       0.82370   0.66190   0.12900   0.0000000000
C          C       0.17630   0.33810   0.87100   0.0000000000
C          C       0.31200   0.35070   0.50700   0.0000000000
C          C       0.68800   0.64930   0.49300   0.0000000000
C          C       0.18800   0.14930   0.50700   0.0000000000
C          C       0.81200   0.85070   0.49300   0.0000000000
C          C       0.64930   0.81200   0.00700   0.0000000000
C          C       0.35070   0.18800   0.99300   0.0000000000
C          C       0.85070   0.68800   0.00700   0.0000000000
C          C       0.14930   0.31200   0.99300   0.0000000000
H          H       0.31390   0.38410   0.50950   0.0000000000
H          H       0.68610   0.61590   0.49050   0.0000000000
H          H       0.18610   0.11590   0.50950   0.0000000000
H          H       0.81390   0.88410   0.49050   0.0000000000
H          H       0.61590   0.81390   0.00950   0.0000000000
H          H       0.38410   0.18610   0.99050   0.0000000000
H          H       0.88410   0.68610   0.00950   0.0000000000
H          H       0.11590   0.31390   0.99050   0.0000000000
C          C       0.28300   0.32800   0.38300   0.0000000000
C          C       0.71700   0.67200   0.61700   0.0000000000
C          C       0.21700   0.17200   0.38300   0.0000000000
C          C       0.78300   0.82800   0.61700   0.0000000000
C          C       0.67200   0.78300   0.88300   0.0000000000
C          C       0.32800   0.21700   0.11700   0.0000000000
C          C       0.82800   0.71700   0.88300   0.0000000000
C          C       0.17200   0.28300   0.11700   0.0000000000
H          H       0.26550   0.34610   0.30120   0.0000000000
H          H       0.73450   0.65390   0.69880   0.0000000000
H          H       0.23450   0.15390   0.30120   0.0000000000
H          H       0.76550   0.84610   0.69880   0.0000000000
H          H       0.65390   0.76550   0.80120   0.0000000000
H          H       0.34610   0.23450   0.19880   0.0000000000
H          H       0.84610   0.73450   0.80120   0.0000000000
H          H       0.15390   0.26550   0.19880   0.0000000000
N          N       0.36610   0.35080   0.75300   0.0000000000
N          N       0.63390   0.64920   0.24700   0.0000000000
N          N       0.13390   0.14920   0.75300   0.0000000000
N          N       0.86610   0.85080   0.24700   0.0000000000
N          N       0.64920   0.86610   0.25300   0.0000000000
N          N       0.35080   0.13390   0.74700   0.0000000000
N          N       0.85080   0.63390   0.25300   0.0000000000
N          N       0.14920   0.36610   0.74700   0.0000000000
C          C       0.39200   0.34100   0.89200   0.0000000000
C          C       0.60800   0.65900   0.10800   0.0000000000
C          C       0.10800   0.15900   0.89200   0.0000000000
C          C       0.89200   0.84100   0.10800   0.0000000000
C          C       0.65900   0.89200   0.39200   0.0000000000
C          C       0.34100   0.10800   0.60800   0.0000000000
C          C       0.84100   0.60800   0.39200   0.0000000000
C          C       0.15900   0.39200   0.60800   0.0000000000
H          H       0.39680   0.30830   0.91010   0.0000000000
H          H       0.60320   0.69170   0.08990   0.0000000000
H          H       0.10320   0.19170   0.91010   0.0000000000
H          H       0.89680   0.80830   0.08990   0.0000000000
H          H       0.69170   0.89680   0.41010   0.0000000000
H          H       0.30830   0.10320   0.58990   0.0000000000
H          H       0.80830   0.60320   0.41010   0.0000000000
H          H       0.19170   0.39680   0.58990   0.0000000000
C          C       0.41500   0.37130   0.02600   0.0000000000
C          C       0.58500   0.62870   0.97400   0.0000000000
C          C       0.08500   0.12870   0.02600   0.0000000000
C          C       0.91500   0.87130   0.97400   0.0000000000
C          C       0.62870   0.91500   0.52600   0.0000000000
C          C       0.37130   0.08500   0.47400   0.0000000000
C          C       0.87130   0.58500   0.52600   0.0000000000
C          C       0.12870   0.41500   0.47400   0.0000000000
C          C       0.46120   0.36330   0.08900   0.0000000000
C          C       0.53880   0.63670   0.91100   0.0000000000
C          C       0.03880   0.13670   0.08900   0.0000000000
C          C       0.96120   0.86330   0.91100   0.0000000000
C          C       0.63670   0.96120   0.58900   0.0000000000
C          C       0.36330   0.03880   0.41100   0.0000000000
C          C       0.86330   0.53880   0.58900   0.0000000000
C          C       0.13670   0.46120   0.41100   0.0000000000
H          H       0.47930   0.33780   0.04440   0.0000000000
H          H       0.52070   0.66220   0.95560   0.0000000000
H          H       0.02070   0.16220   0.04440   0.0000000000
H          H       0.97930   0.83780   0.95560   0.0000000000
H          H       0.66220   0.97930   0.54440   0.0000000000
H          H       0.33780   0.02070   0.45560   0.0000000000
H          H       0.83780   0.52070   0.54440   0.0000000000
H          H       0.16220   0.47930   0.45560   0.0000000000
C          C       0.48050   0.39330   0.21800   0.0000000000
C          C       0.51950   0.60670   0.78200   0.0000000000
C          C       0.01950   0.10670   0.21800   0.0000000000
C          C       0.98050   0.89330   0.78200   0.0000000000
C          C       0.60670   0.98050   0.71800   0.0000000000
C          C       0.39330   0.01950   0.28200   0.0000000000
C          C       0.89330   0.51950   0.71800   0.0000000000
C          C       0.10670   0.48050   0.28200   0.0000000000
H          H       0.51150   0.38790   0.26040   0.0000000000
H          H       0.48850   0.61210   0.73960   0.0000000000
H          H       0.98850   0.11210   0.26040   0.0000000000
H          H       0.01150   0.88790   0.73960   0.0000000000
H          H       0.61210   0.01150   0.76040   0.0000000000
H          H       0.38790   0.98850   0.23960   0.0000000000
H          H       0.88790   0.48850   0.76040   0.0000000000
H          H       0.11210   0.51150   0.23960   0.0000000000
C          C       0.45350   0.43130   0.28400   0.0000000000
C          C       0.54650   0.56870   0.71600   0.0000000000
C          C       0.04650   0.06870   0.28400   0.0000000000
C          C       0.95350   0.93130   0.71600   0.0000000000
C          C       0.56870   0.95350   0.78400   0.0000000000
C          C       0.43130   0.04650   0.21600   0.0000000000
C          C       0.93130   0.54650   0.78400   0.0000000000
C          C       0.06870   0.45350   0.21600   0.0000000000
C          C       0.40730   0.43930   0.22100   0.0000000000
C          C       0.59270   0.56070   0.77900   0.0000000000
C          C       0.09270   0.06070   0.22100   0.0000000000
C          C       0.90730   0.93930   0.77900   0.0000000000
C          C       0.56070   0.90730   0.72100   0.0000000000
C          C       0.43930   0.09270   0.27900   0.0000000000
C          C       0.93930   0.59270   0.72100   0.0000000000
C          C       0.06070   0.40730   0.27900   0.0000000000
H          H       0.38920   0.46470   0.26570   0.0000000000
H          H       0.61080   0.53530   0.73430   0.0000000000
H          H       0.11080   0.03530   0.26570   0.0000000000
H          H       0.88920   0.96470   0.73430   0.0000000000
H          H       0.53530   0.88920   0.76570   0.0000000000
H          H       0.46470   0.11080   0.23430   0.0000000000
H          H       0.96470   0.61080   0.76570   0.0000000000
H          H       0.03530   0.38920   0.23430   0.0000000000
C          C       0.38800   0.40930   0.09200   0.0000000000
C          C       0.61200   0.59070   0.90800   0.0000000000
C          C       0.11200   0.09070   0.09200   0.0000000000
C          C       0.88800   0.90930   0.90800   0.0000000000
C          C       0.59070   0.88800   0.59200   0.0000000000
C          C       0.40930   0.11200   0.40800   0.0000000000
C          C       0.90930   0.61200   0.59200   0.0000000000
C          C       0.09070   0.38800   0.40800   0.0000000000
H          H       0.35710   0.41460   0.04970   0.0000000000
H          H       0.64290   0.58540   0.95030   0.0000000000
H          H       0.14290   0.08540   0.04970   0.0000000000
H          H       0.85710   0.91460   0.95030   0.0000000000
H          H       0.58540   0.85710   0.54970   0.0000000000
H          H       0.41460   0.14290   0.45030   0.0000000000
H          H       0.91460   0.64290   0.54970   0.0000000000
H          H       0.08540   0.35710   0.45030   0.0000000000
C          C       0.47320   0.46550   0.41000   0.0000000000
C          C       0.52680   0.53450   0.59000   0.0000000000
C          C       0.02680   0.03450   0.41000   0.0000000000
C          C       0.97320   0.96550   0.59000   0.0000000000
C          C       0.53450   0.97320   0.91000   0.0000000000
C          C       0.46550   0.02680   0.09000   0.0000000000
C          C       0.96550   0.52680   0.91000   0.0000000000
C          C       0.03450   0.47320   0.09000   0.0000000000
C          C       0.45550   0.47690   0.58200   0.0000000000
C          C       0.54450   0.52310   0.41800   0.0000000000
C          C       0.04450   0.02310   0.58200   0.0000000000
C          C       0.95550   0.97690   0.41800   0.0000000000
C          C       0.52310   0.95550   0.08200   0.0000000000
C          C       0.47690   0.04450   0.91800   0.0000000000
C          C       0.97690   0.54450   0.08200   0.0000000000
C          C       0.02310   0.45550   0.91800   0.0000000000
C          C       0.48570   0.51230   0.66000   0.0000000000
C          C       0.51430   0.48770   0.34000   0.0000000000
C          C       0.01430   0.98770   0.66000   0.0000000000
C          C       0.98570   0.01230   0.34000   0.0000000000
C          C       0.48770   0.98570   0.16000   0.0000000000
C          C       0.51230   0.01430   0.84000   0.0000000000
C          C       0.01230   0.51430   0.16000   0.0000000000
C          C       0.98770   0.48570   0.84000   0.0000000000
N          N       0.46730   0.52320   0.83100   0.0000000000
H          H       0.52388   0.47643   0.21677   0.0000000000
N          N       0.03270   0.97680   0.83100   0.0000000000
H          H       0.97425   0.02028   0.22375   0.0000000000
H          H       0.48090   0.97627   0.28058   0.0000000000
N          N       0.52320   0.03270   0.66900   0.0000000000
N          N       0.02320   0.53270   0.33100   0.0000000000
H          H       0.97885   0.47556   0.72853   0.0000000000
C          C       0.42580   0.49500   0.86000   0.0000000000
C          C       0.07420   0.00500   0.86000   0.0000000000
C          C       0.49500   0.07420   0.64000   0.0000000000
C          C       0.99500   0.57420   0.36000   0.0000000000
H          H       0.40680   0.49450   0.96150   0.0000000000
H          H       0.09320   0.00550   0.96150   0.0000000000
H          H       0.49450   0.09320   0.53850   0.0000000000
H          H       0.99450   0.59320   0.46150   0.0000000000
N          N       0.41850   0.46590   0.70600   0.0000000000
H          H       0.57274   0.54017   0.35754   0.0000000000
N          N       0.08150   0.03410   0.70600   0.0000000000
H          H       0.93181   0.96630   0.32134   0.0000000000
H          H       0.53225   0.93137   0.15948   0.0000000000
N          N       0.46590   0.08150   0.79400   0.0000000000
N          N       0.96590   0.58150   0.20600   0.0000000000
H          H       0.03093   0.42500   0.80361   0.0000000000
H          H       0.39570   0.44550   0.69000   0.0000000000
H          H       0.10430   0.05450   0.69000   0.0000000000
H          H       0.44550   0.10430   0.81000   0.0000000000
H          H       0.94550   0.60430   0.19000   0.0000000000
