data_crystal
 
_cell_length_a    26.47000
_cell_length_b    26.47000
_cell_length_c    7.44900
_cell_angle_alpha 90.00000
_cell_angle_beta  90.00000
_cell_angle_gamma 90.00000
 
_space_group_name_Hall 'P 1'
_space_group_name_H-M_alt  'P 1'
 
loop_
_symmetry_equiv_pos_as_xyz
 'x,y,z' 
 
loop_
_atom_site_label
_atom_site_type_symbol
_atom_site_fract_x
_atom_site_fract_y
_atom_site_fract_z
C          C       0.52130   0.58550   0.63500 
C          C       0.47870   0.41450   0.36500 
C          C       0.97870   0.41450   0.13500 
C          C       0.02130   0.58550   0.86500 
C          C       0.16450   0.77130   0.88500 
C          C       0.83550   0.22870   0.11500 
C          C       0.33550   0.22870   0.38500 
C          C       0.66450   0.77130   0.61500 
C          C       0.02130   0.08550   0.13500 
C          C       0.97870   0.91450   0.86500 
C          C       0.47870   0.91450   0.63500 
C          C       0.52130   0.08550   0.36500 
C          C       0.66450   0.27130   0.38500 
C          C       0.33550   0.72870   0.61500 
C          C       0.83550   0.72870   0.88500 
C          C       0.16450   0.27130   0.11500 
H          H       0.55070   0.56630   0.63670 
H          H       0.44930   0.43370   0.36330 
H          H       0.94930   0.43370   0.13670 
H          H       0.05070   0.56630   0.86330 
H          H       0.18370   0.80070   0.88670 
H          H       0.81630   0.19930   0.11330 
H          H       0.31630   0.19930   0.38670 
H          H       0.68370   0.80070   0.61330 
H          H       0.05070   0.06630   0.13670 
H          H       0.94930   0.93370   0.86330 
H          H       0.44930   0.93370   0.63670 
H          H       0.55070   0.06630   0.36330 
H          H       0.68370   0.30070   0.38670 
H          H       0.31630   0.69930   0.61330 
H          H       0.81630   0.69930   0.88670 
H          H       0.18370   0.30070   0.11330 
N          N       0.48800   0.57810   0.74300 
N          N       0.51200   0.42190   0.25700 
N          N       0.01200   0.42190   0.24300 
N          N       0.98800   0.57810   0.75700 
N          N       0.17190   0.73800   0.99300 
N          N       0.82810   0.26200   0.00700 
N          N       0.32810   0.26200   0.49300 
N          N       0.67190   0.73800   0.50700 
N          N       0.98800   0.07810   0.24300 
N          N       0.01200   0.92190   0.75700 
N          N       0.51200   0.92190   0.74300 
N          N       0.48800   0.07810   0.25700 
N          N       0.67190   0.23800   0.49300 
N          N       0.32810   0.76200   0.50700 
N          N       0.82810   0.76200   0.99300 
N          N       0.17190   0.23800   0.00700 
C          C       0.54970   0.63290   0.36700 
C          C       0.45030   0.36710   0.63300 
C          C       0.95030   0.36710   0.86700 
C          C       0.04970   0.63290   0.13300 
C          C       0.11710   0.79970   0.61700 
C          C       0.88290   0.20030   0.38300 
C          C       0.38290   0.20030   0.11700 
C          C       0.61710   0.79970   0.88300 
C          C       0.04970   0.13290   0.86700 
C          C       0.95030   0.86710   0.13300 
C          C       0.45030   0.86710   0.36700 
C          C       0.54970   0.13290   0.63300 
C          C       0.61710   0.29970   0.11700 
C          C       0.38290   0.70030   0.88300 
C          C       0.88290   0.70030   0.61700 
C          C       0.11710   0.29970   0.38300 
H          H       0.57690   0.61080   0.35860 
H          H       0.42310   0.38920   0.64140 
H          H       0.92310   0.38920   0.85860 
H          H       0.07690   0.61080   0.14140 
H          H       0.13920   0.82690   0.60860 
H          H       0.86080   0.17310   0.39140 
H          H       0.36080   0.17310   0.10860 
H          H       0.63920   0.82690   0.89140 
H          H       0.07690   0.11080   0.85860 
H          H       0.92310   0.88920   0.14140 
H          H       0.42310   0.88920   0.35860 
H          H       0.57690   0.11080   0.64140 
H          H       0.63920   0.32690   0.10860 
H          H       0.36080   0.67310   0.89140 
H          H       0.86080   0.67310   0.60860 
H          H       0.13920   0.32690   0.39140 
C          C       0.51430   0.62660   0.49700 
C          C       0.48570   0.37340   0.50300 
C          C       0.98570   0.37340   0.99700 
C          C       0.01430   0.62660   0.00300 
C          C       0.12340   0.76430   0.74700 
C          C       0.87660   0.23570   0.25300 
C          C       0.37660   0.23570   0.24700 
C          C       0.62340   0.76430   0.75300 
C          C       0.01430   0.12660   0.99700 
C          C       0.98570   0.87340   0.00300 
C          C       0.48570   0.87340   0.49700 
C          C       0.51430   0.12660   0.50300 
C          C       0.62340   0.26430   0.24700 
C          C       0.37660   0.73570   0.75300 
C          C       0.87660   0.73570   0.74700 
C          C       0.12340   0.26430   0.25300 
C          C       0.50550   0.70430   0.25160 
C          C       0.49450   0.29570   0.74840 
C          C       0.99450   0.29570   0.75160 
C          C       0.00550   0.70430   0.24840 
C          C       0.04570   0.75550   0.50160 
C          C       0.95430   0.24450   0.49840 
C          C       0.45430   0.24450   0.00160 
C          C       0.54570   0.75550   0.99840 
C          C       0.00550   0.20430   0.75160 
C          C       0.99450   0.79570   0.24840 
C          C       0.49450   0.79570   0.25160 
C          C       0.50550   0.20430   0.74840 
C          C       0.54570   0.25550   0.00160 
C          C       0.45430   0.74450   0.99840 
C          C       0.95430   0.74450   0.50160 
C          C       0.04570   0.25550   0.49840 
C          C       0.54510   0.67190   0.24670 
C          C       0.45490   0.32810   0.75330 
C          C       0.95490   0.32810   0.74670 
C          C       0.04510   0.67190   0.25330 
C          C       0.07810   0.79510   0.49670 
C          C       0.92190   0.20490   0.50330 
C          C       0.42190   0.20490   0.99670 
C          C       0.57810   0.79510   0.00330 
C          C       0.04510   0.17190   0.74670 
C          C       0.95490   0.82810   0.25330 
C          C       0.45490   0.82810   0.24670 
C          C       0.54510   0.17190   0.75330 
C          C       0.57810   0.29510   0.99670 
C          C       0.42190   0.70490   0.00330 
C          C       0.92190   0.70490   0.49670 
C          C       0.07810   0.29510   0.50330 
H          H       0.56980   0.67620   0.15950 
H          H       0.43020   0.32380   0.84050 
H          H       0.93020   0.32380   0.65950 
H          H       0.06980   0.67620   0.34050 
H          H       0.07380   0.81980   0.40950 
H          H       0.92620   0.18020   0.59050 
H          H       0.42620   0.18020   0.90950 
H          H       0.57380   0.81980   0.09050 
H          H       0.06980   0.17620   0.65950 
H          H       0.93020   0.82380   0.34050 
H          H       0.43020   0.82380   0.15950 
H          H       0.56980   0.17620   0.84050 
H          H       0.57380   0.31980   0.90950 
H          H       0.42620   0.68020   0.09050 
H          H       0.92620   0.68020   0.40950 
H          H       0.07380   0.31980   0.59050 
C          C       0.46760   0.69770   0.38000 
C          C       0.53240   0.30230   0.62000 
C          C       0.03240   0.30230   0.88000 
C          C       0.96760   0.69770   0.12000 
C          C       0.05230   0.71760   0.63000 
C          C       0.94770   0.28240   0.37000 
C          C       0.44770   0.28240   0.13000 
C          C       0.55230   0.71760   0.87000 
C          C       0.96760   0.19770   0.88000 
C          C       0.03240   0.80230   0.12000 
C          C       0.53240   0.80230   0.38000 
C          C       0.46760   0.19770   0.62000 
C          C       0.55230   0.21760   0.13000 
C          C       0.44770   0.78240   0.87000 
C          C       0.94770   0.78240   0.63000 
C          C       0.05230   0.21760   0.37000 
H          H       0.43900   0.71810   0.37880 
H          H       0.56100   0.28190   0.62120 
H          H       0.06100   0.28190   0.87880 
H          H       0.93900   0.71810   0.12120 
H          H       0.03190   0.68900   0.62880 
H          H       0.96810   0.31100   0.37120 
H          H       0.46810   0.31100   0.12880 
H          H       0.53190   0.68900   0.87120 
H          H       0.93900   0.21810   0.87880 
H          H       0.06100   0.78190   0.12120 
H          H       0.56100   0.78190   0.37880 
H          H       0.43900   0.21810   0.62120 
H          H       0.53190   0.18900   0.12880 
H          H       0.46810   0.81100   0.87120 
H          H       0.96810   0.81100   0.62880 
H          H       0.03190   0.18900   0.37120 
C          C       0.47330   0.65970   0.51080 
C          C       0.52670   0.34030   0.48920 
C          C       0.02670   0.34030   0.01080 
C          C       0.97330   0.65970   0.98920 
C          C       0.09030   0.72330   0.76080 
C          C       0.90970   0.27670   0.23920 
C          C       0.40970   0.27670   0.26080 
C          C       0.59030   0.72330   0.73920 
C          C       0.97330   0.15970   0.01080 
C          C       0.02670   0.84030   0.98920 
C          C       0.52670   0.84030   0.51080 
C          C       0.47330   0.15970   0.48920 
C          C       0.59030   0.22330   0.26080 
C          C       0.40970   0.77670   0.73920 
C          C       0.90970   0.77670   0.76080 
C          C       0.09030   0.22330   0.23920 
H          H       0.45020   0.65670   0.60450 
H          H       0.54980   0.34330   0.39550 
H          H       0.04980   0.34330   0.10450 
H          H       0.95020   0.65670   0.89550 
H          H       0.09330   0.70020   0.85450 
H          H       0.90670   0.29980   0.14550 
H          H       0.40670   0.29980   0.35450 
H          H       0.59330   0.70020   0.64550 
H          H       0.95020   0.15670   0.10450 
H          H       0.04980   0.84330   0.89550 
H          H       0.54980   0.84330   0.60450 
H          H       0.45020   0.15670   0.39550 
H          H       0.59330   0.20020   0.35450 
H          H       0.40670   0.79980   0.64550 
H          H       0.90670   0.79980   0.85450 
H          H       0.09330   0.20020   0.14550 
C          C       0.50000   0.75000   0.12500 
C          C       0.50000   0.25000   0.87500 
C          C      -0.00000   0.25000   0.62500 
C          C      -0.00000   0.75000   0.37500 
C          C       0.49450   0.53620   0.88300 
C          C       0.50550   0.46380   0.11700 
C          C       0.00550   0.46380   0.38300 
C          C       0.99450   0.53620   0.61700 
C          C       0.21380   0.74450   0.13300 
C          C       0.78620   0.25550   0.86700 
C          C       0.28620   0.25550   0.63300 
C          C       0.71380   0.74450   0.36700 
C          C       0.99450   0.03620   0.38300 
C          C       0.00550   0.96380   0.61700 
C          C       0.50550   0.96380   0.88300 
C          C       0.49450   0.03620   0.11700 
C          C       0.71380   0.24450   0.63300 
C          C       0.28620   0.75550   0.36700 
C          C       0.78620   0.75550   0.13300 
C          C       0.21380   0.24450   0.86700 
C          C       0.49910   0.49010   0.82400 
C          C       0.50090   0.50990   0.17600 
C          C       0.00090   0.50990   0.32400 
C          C       0.25990   0.74910   0.07400 
C          C       0.74010   0.25090   0.92600 
C          C       0.24010   0.25090   0.57400 
C          C       0.75990   0.74910   0.42600 
C          C       0.00090   0.00990   0.67600 
C          C       0.50090   0.00990   0.82400 
C          C       0.49910   0.99010   0.17600 
C          C       0.75990   0.24910   0.57400 
C          C       0.24010   0.75090   0.42600 
C          C       0.74010   0.75090   0.07400 
C          C       0.25990   0.24910   0.92600 
H          H       0.49710   0.48210   0.70300 
H          H       0.50290   0.51790   0.29700 
H          H       0.00290   0.51790   0.20300 
H          H       0.99710   0.48210   0.79700 
H          H       0.26790   0.74710   0.95300 
H          H       0.73210   0.25290   0.04700 
H          H       0.23210   0.25290   0.45300 
H          H       0.76790   0.74710   0.54700 
H          H       0.99710   0.98210   0.20300 
H          H       0.00290   0.01790   0.79700 
H          H       0.50290   0.01790   0.70300 
H          H       0.49710   0.98210   0.29700 
H          H       0.76790   0.24710   0.45300 
H          H       0.23210   0.75290   0.54700 
H          H       0.73210   0.75290   0.95300 
H          H       0.26790   0.24710   0.04700 
C          C       0.49300   0.54590   0.04500 
C          C       0.50700   0.45410   0.95500 
C          C       0.00700   0.45410   0.54500 
C          C       0.99300   0.54590   0.45500 
C          C       0.20410   0.74300   0.29500 
C          C       0.79590   0.25700   0.70500 
C          C       0.29590   0.25700   0.79500 
C          C       0.70410   0.74300   0.20500 
C          C       0.99300   0.04590   0.54500 
C          C       0.00700   0.95410   0.45500 
C          C       0.50700   0.95410   0.04500 
C          C       0.49300   0.04590   0.95500 
C          C       0.70410   0.24300   0.79500 
C          C       0.29590   0.75700   0.20500 
C          C       0.79590   0.75700   0.29500 
C          C       0.20410   0.24300   0.70500 
H          H       0.48620   0.57890   0.08040 
H          H       0.51380   0.42110   0.91960 
H          H       0.01380   0.42110   0.58040 
H          H       0.98620   0.57890   0.41960 
H          H       0.17110   0.73620   0.33040 
H          H       0.82890   0.26380   0.66960 
H          H       0.32890   0.26380   0.83040 
H          H       0.67110   0.73620   0.16960 
H          H       0.98620   0.07890   0.58040 
H          H       0.01380   0.92110   0.41960 
H          H       0.51380   0.92110   0.08040 
H          H       0.48620   0.07890   0.91960 
H          H       0.67110   0.23620   0.83040 
H          H       0.32890   0.76380   0.16960 
H          H       0.82890   0.76380   0.33040 
H          H       0.17110   0.23620   0.66960 
C          C       0.99794   0.47898   0.65634 
C          C       0.99651   0.99245   0.34901 
