data_PPy-COF
_audit_creation_date              0000-00-00
_audit_creation_method            'LanYouShi'
_symmetry_space_group_name_H-M    'P1'
_cell_length_a                    22.1629009
_cell_length_b                    22.1629009
_cell_length_c                    3.4207001
_cell_angle_alpha                 90.0000000
_cell_angle_beta                  90.0000000
_cell_angle_gamma                 120.0000000
loop_
_atom_site_label
_atom_site_type_symbol
_atom_site_fract_x
_atom_site_fract_y
_atom_site_fract_z
_atom_site_U_iso_or_equiv
_atom_site_adp_type
_atom_site_occupancy
        C1          C  0.1452103  0.6258814  0.4999942    0.00000       Uiso       1.00
        C2          C  0.0732802  0.5911713  0.4999942    0.00000       Uiso       1.00
        C3          C  0.0348901  0.6266114  0.4999942    0.00000       Uiso       1.00
        H1          H  0.1740804  0.6852716  0.4999942    0.00000       Uiso       1.00
        H2          H  0.0633901  0.6860015  0.4999942    0.00000       Uiso       1.00
        C4          C  0.3741208  0.5193312  0.4999942    0.00000       Uiso       1.00
        C5          C  0.4088309  0.4821111  0.4999942    0.00000       Uiso       1.00
        C6          C  0.3733909  0.4082809  0.4999942    0.00000       Uiso       1.00
        H3          H  0.3147307  0.4888110  0.4999942    0.00000       Uiso       1.00
        H4          H  0.3140007  0.3773908  0.4999942    0.00000       Uiso       1.00
        C7          C  0.4806711  0.8547919  0.4999942    0.00000       Uiso       1.00
        C8          C  0.5178912  0.9267220  0.4999942    0.00000       Uiso       1.00
        C9          C  0.5917213  0.9651121  0.4999942    0.00000       Uiso       1.00
        H5          H  0.5111911  0.8259218  0.4999942    0.00000       Uiso       1.00
        H6          H  0.6226113  0.9366120  0.4999942    0.00000       Uiso       1.00
       C10          C  0.8547919  0.3741208  0.4999942    0.00000       Uiso       1.00
       C11          C  0.9267220  0.4088309  0.4999942    0.00000       Uiso       1.00
       C12          C  0.9651121  0.3733908  0.4999942    0.00000       Uiso       1.00
        H7          H  0.8259218  0.3147307  0.4999942    0.00000       Uiso       1.00
        H8          H  0.9366121  0.3140007  0.4999942    0.00000       Uiso       1.00
       C13          C  0.6258814  0.4806711  0.4999942    0.00000       Uiso       1.00
       C14          C  0.5911713  0.5178912  0.4999942    0.00000       Uiso       1.00
       C15          C  0.6266114  0.5917213  0.4999942    0.00000       Uiso       1.00
        H9          H  0.6852715  0.5111911  0.4999942    0.00000       Uiso       1.00
       H10          H  0.6860015  0.6226113  0.4999942    0.00000       Uiso       1.00
       C16          C  0.5193312  0.1452103  0.4999942    0.00000       Uiso       1.00
       C17          C  0.4821110  0.0732802  0.4999942    0.00000       Uiso       1.00
       C18          C  0.4082809  0.0348901  0.4999942    0.00000       Uiso       1.00
       H11          H  0.4888111  0.1740804  0.4999942    0.00000       Uiso       1.00
       H12          H  0.3773908  0.0633901  0.4999942    0.00000       Uiso       1.00
       C19          C  0.6258814  0.1452103  0.4999942    0.00000       Uiso       1.00
       C20          C  0.5911713  0.0732802  0.4999942    0.00000       Uiso       1.00
       C21          C  0.6266114  0.0348901  0.4999942    0.00000       Uiso       1.00
       H13          H  0.6852716  0.1740804  0.4999942    0.00000       Uiso       1.00
       H14          H  0.6860015  0.0633901  0.4999942    0.00000       Uiso       1.00
       C22          C  0.5193312  0.3741208  0.4999942    0.00000       Uiso       1.00
       C23          C  0.4821110  0.4088309  0.4999942    0.00000       Uiso       1.00
       C24          C  0.4082809  0.3733908  0.4999942    0.00000       Uiso       1.00
       H15          H  0.4888111  0.3147307  0.4999942    0.00000       Uiso       1.00
       H16          H  0.3773909  0.3140007  0.4999942    0.00000       Uiso       1.00
       C25          C  0.8547919  0.4806711  0.4999942    0.00000       Uiso       1.00
       C26          C  0.9267220  0.5178912  0.4999942    0.00000       Uiso       1.00
       C27          C  0.9651121  0.5917213  0.4999942    0.00000       Uiso       1.00
       H17          H  0.8259218  0.5111911  0.4999942    0.00000       Uiso       1.00
       H18          H  0.9366121  0.6226113  0.4999942    0.00000       Uiso       1.00
       C28          C  0.3741209  0.8547919  0.4999942    0.00000       Uiso       1.00
       C29          C  0.4088309  0.9267220  0.4999942    0.00000       Uiso       1.00
       C30          C  0.3733908  0.9651121  0.4999942    0.00000       Uiso       1.00
       H19          H  0.3147307  0.8259218  0.4999942    0.00000       Uiso       1.00
       H20          H  0.3140007  0.9366120  0.4999942    0.00000       Uiso       1.00
       C31          C  0.4806711  0.6258814  0.4999942    0.00000       Uiso       1.00
       C32          C  0.5178912  0.5911713  0.4999942    0.00000       Uiso       1.00
       C33          C  0.5917213  0.6266114  0.4999942    0.00000       Uiso       1.00
       H21          H  0.5111911  0.6852716  0.4999942    0.00000       Uiso       1.00
       H22          H  0.6226113  0.6860015  0.4999942    0.00000       Uiso       1.00
       C34          C  0.1452103  0.5193312  0.4999942    0.00000       Uiso       1.00
       C35          C  0.0732802  0.4821111  0.4999942    0.00000       Uiso       1.00
       C36          C  0.0348901  0.4082809  0.4999942    0.00000       Uiso       1.00
       H23          H  0.1740804  0.4888110  0.4999942    0.00000       Uiso       1.00
       H24          H  0.0633901  0.3773908  0.4999942    0.00000       Uiso       1.00
       C37          C  0.1820604  0.5910313  0.4999942    0.00000       Uiso       1.00
       C38          C  0.0365001  0.5182511  0.4999942    0.00000       Uiso       1.00
        B1          B  0.2617706  0.6308864  0.4999942    0.00000       Uiso       1.00
       C39          C  0.4089709  0.5910313  0.4999942    0.00000       Uiso       1.00
       C40          C  0.4817511  0.5182511  0.4999942    0.00000       Uiso       1.00
        B2          B  0.3691158  0.6308864  0.4999942    0.00000       Uiso       1.00
       C41          C  0.4089709  0.8179418  0.4999942    0.00000       Uiso       1.00
       C42          C  0.4817511  0.9635022  0.4999942    0.00000       Uiso       1.00
        B3          B  0.3691158  0.7382317  0.4999942    0.00000       Uiso       1.00
       C43          C  0.8179418  0.4089709  0.4999942    0.00000       Uiso       1.00
       C44          C  0.9635021  0.4817511  0.4999942    0.00000       Uiso       1.00
        B4          B  0.7382317  0.3691158  0.4999942    0.00000       Uiso       1.00
       C45          C  0.5910313  0.4089709  0.4999942    0.00000       Uiso       1.00
       C46          C  0.5182511  0.4817511  0.4999942    0.00000       Uiso       1.00
        B5          B  0.6308864  0.3691158  0.4999942    0.00000       Uiso       1.00
       C47          C  0.5910313  0.1820604  0.4999942    0.00000       Uiso       1.00
       C48          C  0.5182512  0.0365001  0.4999942    0.00000       Uiso       1.00
        B6          B  0.6308864  0.2617706  0.4999942    0.00000       Uiso       1.00
        O1          O  0.2979057  0.5958113  0.4999942    0.00000       Uiso       1.00
        O2          O  0.4041909  0.7020966  0.4999942    0.00000       Uiso       1.00
        O3          O  0.2979057  0.7020966  0.4999942    0.00000       Uiso       1.00
        O4          O  0.7020966  0.4041909  0.4999942    0.00000       Uiso       1.00
        O5          O  0.5958114  0.2979057  0.4999942    0.00000       Uiso       1.00
        O6          O  0.7020966  0.2979057  0.4999942    0.00000       Uiso       1.00
