data_Py-1P-F-COF
_audit_creation_date              0000-00-00
_audit_creation_method            'LanYouShi'
_symmetry_space_group_name_H-M    'P1'
_cell_length_a                    32.5990982
_cell_length_b                    35.9928017
_cell_length_c                    4.0036001
_cell_angle_alpha                 90.0000000
_cell_angle_beta                  90.0000000
_cell_angle_gamma                 90.0000000
loop_
_atom_site_label
_atom_site_type_symbol
_atom_site_fract_x
_atom_site_fract_y
_atom_site_fract_z
_atom_site_U_iso_or_equiv
_atom_site_adp_type
_atom_site_occupancy
        C1          C  0.5442069  0.5342136 -0.2416931    0.00000       Uiso       1.00
        C2          C  0.4785866  0.5668526 -0.3034533    0.00000       Uiso       1.00
        C3          C  0.4124662  0.5346189 -0.1889256    0.00000       Uiso       1.00
        C4          C  0.3875412  0.5671133 -0.1679341    0.00000       Uiso       1.00
        C5          C  0.3489624  0.5688905 -0.3318743    0.00000       Uiso       1.00
        C6          C  0.3235481  0.6003431 -0.3063347    0.00000       Uiso       1.00
        C7          C  0.3361346  0.6317032 -0.1226192    0.00000       Uiso       1.00
        C8          C  0.3745729  0.6305577  0.0398698    0.00000       Uiso       1.00
        C9          C  0.3992355  0.5985652  0.0221788    0.00000       Uiso       1.00
        H1          H  0.4645816  0.5916697 -0.3473160    0.00000       Uiso       1.00
        H2          H  0.3388771  0.5471722 -0.4750058    0.00000       Uiso       1.00
        H3          H  0.2957984  0.6002697 -0.4262134    0.00000       Uiso       1.00
        H4          H  0.3848877  0.6526158  0.1763518    0.00000       Uiso       1.00
        H5          H  0.4260195  0.5985218  0.1534253    0.00000       Uiso       1.00
       C10          C  0.2188649  0.7783855 -0.0154405    0.00000       Uiso       1.00
       C11          C  0.2120860  0.7424962 -0.1515964    0.00000       Uiso       1.00
       C12          C  0.2425130  0.7146652 -0.1363492    0.00000       Uiso       1.00
        F1          F  0.1771854  0.7340328 -0.2960695    0.00000       Uiso       1.00
        F2          F  0.2335563  0.6822959 -0.2671230    0.00000       Uiso       1.00
       C13          C  0.1875532  0.8055662 -0.0355000    0.00000       Uiso       1.00
        N1          N  0.1901584  0.8391511  0.1145346    0.00000       Uiso       1.00
        H6          H  0.8383815  0.2003201 -0.1684168    0.00000       Uiso       1.00
       C14          C  0.4557942  0.4657853 -0.2416931    0.00000       Uiso       1.00
       C15          C  0.5214146  0.4331463 -0.3034533    0.00000       Uiso       1.00
       C16          C  0.5875349  0.4653800 -0.1889256    0.00000       Uiso       1.00
       C17          C  0.6124599  0.4328856 -0.1679341    0.00000       Uiso       1.00
       C18          C  0.6510387  0.4311084 -0.3318743    0.00000       Uiso       1.00
       C19          C  0.6764529  0.3996558 -0.3063347    0.00000       Uiso       1.00
       C20          C  0.6638665  0.3682957 -0.1226192    0.00000       Uiso       1.00
       C21          C  0.6254281  0.3694413  0.0398698    0.00000       Uiso       1.00
       C22          C  0.6007656  0.4014337  0.0221788    0.00000       Uiso       1.00
        H7          H  0.5354195  0.4083292 -0.3473160    0.00000       Uiso       1.00
        H8          H  0.6611239  0.4528268 -0.4750058    0.00000       Uiso       1.00
        H9          H  0.7042027  0.3997291 -0.4262134    0.00000       Uiso       1.00
       H10          H  0.6151134  0.3473831  0.1763518    0.00000       Uiso       1.00
       H11          H  0.5739816  0.4014771  0.1534253    0.00000       Uiso       1.00
       C23          C  0.7811362  0.2216134 -0.0154405    0.00000       Uiso       1.00
       C24          C  0.7879151  0.2575027 -0.1515964    0.00000       Uiso       1.00
       C25          C  0.7574881  0.2853337 -0.1363492    0.00000       Uiso       1.00
        F3          F  0.8228157  0.2659661 -0.2960695    0.00000       Uiso       1.00
        F4          F  0.7664448  0.3177030 -0.2671230    0.00000       Uiso       1.00
       C26          C  0.8124478  0.1944327 -0.0355000    0.00000       Uiso       1.00
        N2          N  0.8098426  0.1608478  0.1145346    0.00000       Uiso       1.00
       H12          H  0.1616195  0.7996787 -0.1684168    0.00000       Uiso       1.00
       C27          C  0.9557948  0.0342142  0.2416931    0.00000       Uiso       1.00
       C28          C  0.0214140  0.0668532  0.3034533    0.00000       Uiso       1.00
       C29          C  0.0875344  0.0346194  0.1889256    0.00000       Uiso       1.00
       C30          C  0.1124594  0.0671138  0.1679341    0.00000       Uiso       1.00
       C31          C  0.1510381  0.0688910  0.3318743    0.00000       Uiso       1.00
       C32          C  0.1764524  0.1003437  0.3063347    0.00000       Uiso       1.00
       C33          C  0.1638659  0.1317038  0.1226192    0.00000       Uiso       1.00
       C34          C  0.1254276  0.1305582 -0.0398698    0.00000       Uiso       1.00
       C35          C  0.1007651  0.0985657 -0.0221788    0.00000       Uiso       1.00
       H13          H  0.0354189  0.0916703  0.3473160    0.00000       Uiso       1.00
       H14          H  0.1611234  0.0471727  0.4750058    0.00000       Uiso       1.00
       H15          H  0.2042021  0.1002703  0.4262134    0.00000       Uiso       1.00
       H16          H  0.1151128  0.1526164 -0.1763518    0.00000       Uiso       1.00
       H17          H  0.0739811  0.0985224 -0.1534253    0.00000       Uiso       1.00
       C36          C  0.2811356  0.2783861  0.0154405    0.00000       Uiso       1.00
       C37          C  0.2879145  0.2424967  0.1515964    0.00000       Uiso       1.00
       C38          C  0.2574875  0.2146658  0.1363492    0.00000       Uiso       1.00
        F5          F  0.3228152  0.2340334  0.2960695    0.00000       Uiso       1.00
        F6          F  0.2664442  0.1822965  0.2671230    0.00000       Uiso       1.00
       C39          C  0.3124473  0.3055668  0.0355000    0.00000       Uiso       1.00
        N3          N  0.3098421  0.3391516 -0.1145346    0.00000       Uiso       1.00
       H18          H  0.6616201  0.7003195  0.1684168    0.00000       Uiso       1.00
       C40          C  0.0442063  0.9657847  0.2416931    0.00000       Uiso       1.00
       C41          C  0.9785871  0.9331457  0.3034533    0.00000       Uiso       1.00
       C42          C  0.9124667  0.9653795  0.1889256    0.00000       Uiso       1.00
       C43          C  0.8875417  0.9328851  0.1679341    0.00000       Uiso       1.00
       C44          C  0.8489630  0.9311078  0.3318743    0.00000       Uiso       1.00
       C45          C  0.8235487  0.8996552  0.3063347    0.00000       Uiso       1.00
       C46          C  0.8361352  0.8682951  0.1226192    0.00000       Uiso       1.00
       C47          C  0.8745735  0.8694407 -0.0398698    0.00000       Uiso       1.00
       C48          C  0.8992360  0.9014332 -0.0221788    0.00000       Uiso       1.00
       H19          H  0.9645822  0.9083286  0.3473160    0.00000       Uiso       1.00
       H20          H  0.8388777  0.9528262  0.4750058    0.00000       Uiso       1.00
       H21          H  0.7957990  0.8997285  0.4262134    0.00000       Uiso       1.00
       H22          H  0.8848883  0.8473825 -0.1763518    0.00000       Uiso       1.00
       H23          H  0.9260200  0.9014766 -0.1534253    0.00000       Uiso       1.00
       C49          C  0.7188655  0.7216128  0.0154405    0.00000       Uiso       1.00
       C50          C  0.7120866  0.7575022  0.1515964    0.00000       Uiso       1.00
       C51          C  0.7425135  0.7853331  0.1363492    0.00000       Uiso       1.00
        F7          F  0.6771860  0.7659656  0.2960695    0.00000       Uiso       1.00
        F8          F  0.7335569  0.8177025  0.2671230    0.00000       Uiso       1.00
       C52          C  0.6875538  0.6944321  0.0355000    0.00000       Uiso       1.00
        N4          N  0.6901590  0.6608472 -0.1145346    0.00000       Uiso       1.00
       H24          H  0.3383810  0.2996793  0.1684168    0.00000       Uiso       1.00
       C53          C  0.9557948  0.9657847  0.2416931    0.00000       Uiso       1.00
       C54          C  0.0214140  0.9331457  0.3034533    0.00000       Uiso       1.00
       C55          C  0.0875344  0.9653795  0.1889256    0.00000       Uiso       1.00
       C56          C  0.1124594  0.9328851  0.1679341    0.00000       Uiso       1.00
       C57          C  0.1510381  0.9311078  0.3318743    0.00000       Uiso       1.00
       C58          C  0.1764524  0.8996552  0.3063347    0.00000       Uiso       1.00
       C59          C  0.1638659  0.8682951  0.1226192    0.00000       Uiso       1.00
       C60          C  0.1254276  0.8694407 -0.0398698    0.00000       Uiso       1.00
       C61          C  0.1007651  0.9014332 -0.0221788    0.00000       Uiso       1.00
       H25          H  0.0354189  0.9083286  0.3473160    0.00000       Uiso       1.00
       H26          H  0.1611234  0.9528262  0.4750058    0.00000       Uiso       1.00
       H27          H  0.2042021  0.8997285  0.4262134    0.00000       Uiso       1.00
       H28          H  0.1151128  0.8473825 -0.1763518    0.00000       Uiso       1.00
       H29          H  0.0739811  0.9014766 -0.1534253    0.00000       Uiso       1.00
       C62          C  0.2811356  0.7216128  0.0154405    0.00000       Uiso       1.00
       C63          C  0.2879145  0.7575022  0.1515964    0.00000       Uiso       1.00
       C64          C  0.2574875  0.7853331  0.1363492    0.00000       Uiso       1.00
        F9          F  0.3228152  0.7659656  0.2960695    0.00000       Uiso       1.00
       F10          F  0.2664442  0.8177025  0.2671230    0.00000       Uiso       1.00
       C65          C  0.3124473  0.6944321  0.0355000    0.00000       Uiso       1.00
        N5          N  0.3098421  0.6608472 -0.1145346    0.00000       Uiso       1.00
       H30          H  0.6616201  0.2996793  0.1684168    0.00000       Uiso       1.00
       C66          C  0.0442063  0.0342142  0.2416931    0.00000       Uiso       1.00
       C67          C  0.9785871  0.0668532  0.3034533    0.00000       Uiso       1.00
       C68          C  0.9124667  0.0346194  0.1889256    0.00000       Uiso       1.00
       C69          C  0.8875417  0.0671138  0.1679341    0.00000       Uiso       1.00
       C70          C  0.8489630  0.0688910  0.3318743    0.00000       Uiso       1.00
       C71          C  0.8235487  0.1003437  0.3063347    0.00000       Uiso       1.00
       C72          C  0.8361352  0.1317038  0.1226192    0.00000       Uiso       1.00
       C73          C  0.8745735  0.1305582 -0.0398698    0.00000       Uiso       1.00
       C74          C  0.8992360  0.0985657 -0.0221788    0.00000       Uiso       1.00
       H31          H  0.9645822  0.0916703  0.3473160    0.00000       Uiso       1.00
       H32          H  0.8388777  0.0471727  0.4750058    0.00000       Uiso       1.00
       H33          H  0.7957990  0.1002703  0.4262134    0.00000       Uiso       1.00
       H34          H  0.8848883  0.1526164 -0.1763518    0.00000       Uiso       1.00
       H35          H  0.9260200  0.0985224 -0.1534253    0.00000       Uiso       1.00
       C75          C  0.7188655  0.2783861  0.0154405    0.00000       Uiso       1.00
       C76          C  0.7120866  0.2424967  0.1515964    0.00000       Uiso       1.00
       C77          C  0.7425135  0.2146658  0.1363492    0.00000       Uiso       1.00
       F11          F  0.6771860  0.2340334  0.2960695    0.00000       Uiso       1.00
       F12          F  0.7335569  0.1822965  0.2671230    0.00000       Uiso       1.00
       C78          C  0.6875538  0.3055668  0.0355000    0.00000       Uiso       1.00
        N6          N  0.6901590  0.3391516 -0.1145346    0.00000       Uiso       1.00
       H36          H  0.3383810  0.7003195  0.1684168    0.00000       Uiso       1.00
       C79          C  0.5442069  0.4657853 -0.2416931    0.00000       Uiso       1.00
       C80          C  0.4785866  0.4331463 -0.3034533    0.00000       Uiso       1.00
       C81          C  0.4124662  0.4653800 -0.1889256    0.00000       Uiso       1.00
       C82          C  0.3875412  0.4328856 -0.1679341    0.00000       Uiso       1.00
       C83          C  0.3489624  0.4311084 -0.3318743    0.00000       Uiso       1.00
       C84          C  0.3235481  0.3996558 -0.3063347    0.00000       Uiso       1.00
       C85          C  0.3361346  0.3682957 -0.1226192    0.00000       Uiso       1.00
       C86          C  0.3745729  0.3694413  0.0398698    0.00000       Uiso       1.00
       C87          C  0.3992355  0.4014337  0.0221788    0.00000       Uiso       1.00
       H37          H  0.4645816  0.4083292 -0.3473160    0.00000       Uiso       1.00
       H38          H  0.3388771  0.4528268 -0.4750058    0.00000       Uiso       1.00
       H39          H  0.2957984  0.3997291 -0.4262134    0.00000       Uiso       1.00
       H40          H  0.3848877  0.3473831  0.1763518    0.00000       Uiso       1.00
       H41          H  0.4260195  0.4014771  0.1534253    0.00000       Uiso       1.00
       C88          C  0.2188649  0.2216134 -0.0154405    0.00000       Uiso       1.00
       C89          C  0.2120860  0.2575027 -0.1515964    0.00000       Uiso       1.00
       C90          C  0.2425130  0.2853337 -0.1363492    0.00000       Uiso       1.00
       F13          F  0.1771854  0.2659661 -0.2960695    0.00000       Uiso       1.00
       F14          F  0.2335563  0.3177030 -0.2671230    0.00000       Uiso       1.00
       C91          C  0.1875532  0.1944327 -0.0355000    0.00000       Uiso       1.00
        N7          N  0.1901584  0.1608478  0.1145346    0.00000       Uiso       1.00
       H42          H  0.8383815  0.7996787 -0.1684168    0.00000       Uiso       1.00
       C92          C  0.4557942  0.5342136 -0.2416931    0.00000       Uiso       1.00
       C93          C  0.5214146  0.5668526 -0.3034533    0.00000       Uiso       1.00
       C94          C  0.5875349  0.5346189 -0.1889256    0.00000       Uiso       1.00
       C95          C  0.6124599  0.5671133 -0.1679341    0.00000       Uiso       1.00
       C96          C  0.6510387  0.5688905 -0.3318743    0.00000       Uiso       1.00
       C97          C  0.6764529  0.6003431 -0.3063347    0.00000       Uiso       1.00
       C98          C  0.6638665  0.6317032 -0.1226192    0.00000       Uiso       1.00
       C99          C  0.6254281  0.6305577  0.0398698    0.00000       Uiso       1.00
      C100          C  0.6007656  0.5985652  0.0221788    0.00000       Uiso       1.00
       H43          H  0.5354195  0.5916697 -0.3473160    0.00000       Uiso       1.00
       H44          H  0.6611239  0.5471722 -0.4750058    0.00000       Uiso       1.00
       H45          H  0.7042027  0.6002697 -0.4262134    0.00000       Uiso       1.00
       H46          H  0.6151134  0.6526158  0.1763518    0.00000       Uiso       1.00
       H47          H  0.5739816  0.5985218  0.1534253    0.00000       Uiso       1.00
      C101          C  0.7811362  0.7783855 -0.0154405    0.00000       Uiso       1.00
      C102          C  0.7879151  0.7424962 -0.1515964    0.00000       Uiso       1.00
      C103          C  0.7574881  0.7146652 -0.1363492    0.00000       Uiso       1.00
       F15          F  0.8228157  0.7340328 -0.2960695    0.00000       Uiso       1.00
       F16          F  0.7664448  0.6822959 -0.2671230    0.00000       Uiso       1.00
      C104          C  0.8124478  0.8055662 -0.0355000    0.00000       Uiso       1.00
        N8          N  0.8098426  0.8391511  0.1145346    0.00000       Uiso       1.00
       H48          H  0.1616195  0.2003201 -0.1684168    0.00000       Uiso       1.00
      C105          C  0.3926711  0.4999995 -0.1468808    0.00000       Uiso       1.00
      C106          C  0.5220450  0.4999995 -0.2401515    0.00000       Uiso       1.00
       H49          H  0.3622088  0.4999995 -0.0828375    0.00000       Uiso       1.00
      C107          C  0.6073300  0.4999995 -0.1468808    0.00000       Uiso       1.00
      C108          C  0.4779562  0.4999995 -0.2401515    0.00000       Uiso       1.00
       H50          H  0.6377923  0.4999995 -0.0828375    0.00000       Uiso       1.00
      C109          C  0.1073294  0.0000000  0.1468808    0.00000       Uiso       1.00
      C110          C  0.9779568  0.0000000  0.2401515    0.00000       Uiso       1.00
       H51          H  0.1377918  0.0000000  0.0828375    0.00000       Uiso       1.00
      C111          C  0.8926716  0.0000000  0.1468808    0.00000       Uiso       1.00
      C112          C  0.0220444  0.0000000  0.2401515    0.00000       Uiso       1.00
       H52          H  0.8622093  0.0000000  0.0828375    0.00000       Uiso       1.00
