data_Py-22-BPYPH_COF
_audit_creation_date              0000-00-00
_audit_creation_method            'LanYouShi'
_symmetry_space_group_name_H-M    'P1'
_cell_length_a                    37.6708984
_cell_length_b                    43.2742004
_cell_length_c                    4.0070000
_cell_angle_alpha                 90.0000000
_cell_angle_beta                  90.0000000
_cell_angle_gamma                 90.0000000
loop_
_atom_site_label
_atom_site_type_symbol
_atom_site_fract_x
_atom_site_fract_y
_atom_site_fract_z
_atom_site_U_iso_or_equiv
_atom_site_adp_type
_atom_site_occupancy
        C1          C  0.9673045  0.4667180  0.3394609    0.00000       Uiso       1.00
        C2          C  0.4673274  0.9666935  0.5757577    0.00000       Uiso       1.00
        C3          C  0.0327244  0.5332811  0.3394609    0.00000       Uiso       1.00
        C4          C  0.5327014  0.0333055  0.5757577    0.00000       Uiso       1.00
        C5          C  0.9673045  0.5332811  0.3394609    0.00000       Uiso       1.00
        C6          C  0.4673274  0.0333055  0.5757577    0.00000       Uiso       1.00
        C7          C  0.0327244  0.4667180  0.3394609    0.00000       Uiso       1.00
        C8          C  0.5327014  0.9666935  0.5757577    0.00000       Uiso       1.00
        C9          C  0.9360484  0.5161437  0.2794157    0.00000       Uiso       1.00
       C10          C  0.4361026  0.0161412  0.5149669    0.00000       Uiso       1.00
       C11          C  0.0639805  0.4838554  0.2794157    0.00000       Uiso       1.00
       C12          C  0.5639263  0.9838578  0.5149669    0.00000       Uiso       1.00
       C13          C  0.9360484  0.4838554  0.2794157    0.00000       Uiso       1.00
       C14          C  0.4361026  0.9838578  0.5149669    0.00000       Uiso       1.00
       C15          C  0.0639805  0.5161437  0.2794157    0.00000       Uiso       1.00
       C16          C  0.5639263  0.0161412  0.5149669    0.00000       Uiso       1.00
       C17          C  0.9669363  0.5659273  0.3914661    0.00000       Uiso       1.00
       C18          C  0.4669568  0.0659787  0.6266654    0.00000       Uiso       1.00
       C19          C  0.0330925  0.4340718  0.3914661    0.00000       Uiso       1.00
       C20          C  0.5330721  0.9340203  0.6266654    0.00000       Uiso       1.00
       C21          C  0.9669363  0.4340718  0.3914661    0.00000       Uiso       1.00
       C22          C  0.4669568  0.9340203  0.6266654    0.00000       Uiso       1.00
       C23          C  0.0330925  0.5659273  0.3914661    0.00000       Uiso       1.00
       C24          C  0.5330721  0.0659787  0.6266654    0.00000       Uiso       1.00
       C25          C  0.9359439  0.5847631  0.4132024    0.00000       Uiso       1.00
       C26          C  0.4358692  0.0847133  0.6456073    0.00000       Uiso       1.00
       C27          C  0.0640850  0.4152358  0.4132024    0.00000       Uiso       1.00
       C28          C  0.5641597  0.9152857  0.6456073    0.00000       Uiso       1.00
       C29          C  0.9359439  0.4152358  0.4132024    0.00000       Uiso       1.00
       C30          C  0.4358692  0.9152857  0.6456073    0.00000       Uiso       1.00
       C31          C  0.0640850  0.5847631  0.4132024    0.00000       Uiso       1.00
       C32          C  0.5641597  0.0847133  0.6456073    0.00000       Uiso       1.00
       C33          C  0.9060400  0.5761622  0.6058380    0.00000       Uiso       1.00
       C34          C  0.4059100  0.0760137  0.8368760    0.00000       Uiso       1.00
       C35          C  0.0939889  0.4238368  0.6058380    0.00000       Uiso       1.00
       C36          C  0.5941188  0.9239853  0.8368760    0.00000       Uiso       1.00
       C37          C  0.9060400  0.4238368  0.6058380    0.00000       Uiso       1.00
       C38          C  0.4059100  0.9239853  0.8368760    0.00000       Uiso       1.00
       C39          C  0.0939889  0.5761622  0.6058380    0.00000       Uiso       1.00
       C40          C  0.5941188  0.0760137  0.8368760    0.00000       Uiso       1.00
       C41          C  0.8757293  0.5950629  0.6280668    0.00000       Uiso       1.00
       C42          C  0.3750502  0.0942916  0.8485548    0.00000       Uiso       1.00
       C43          C  0.1242995  0.4049362  0.6280668    0.00000       Uiso       1.00
       C44          C  0.6249787  0.9057074  0.8485548    0.00000       Uiso       1.00
       C45          C  0.8757293  0.4049362  0.6280668    0.00000       Uiso       1.00
       C46          C  0.3750502  0.9057074  0.8485548    0.00000       Uiso       1.00
       C47          C  0.1242995  0.5950629  0.6280668    0.00000       Uiso       1.00
       C48          C  0.6249787  0.0942916  0.8485548    0.00000       Uiso       1.00
       C49          C  0.8746446  0.6241937  0.4689248    0.00000       Uiso       1.00
       C50          C  0.3733814  0.1229057  0.6792843    0.00000       Uiso       1.00
       C51          C  0.1253842  0.3758053  0.4689248    0.00000       Uiso       1.00
       C52          C  0.6266475  0.8770933  0.6792843    0.00000       Uiso       1.00
       C53          C  0.8746446  0.3758053  0.4689248    0.00000       Uiso       1.00
       C54          C  0.3733814  0.8770933  0.6792843    0.00000       Uiso       1.00
       C55          C  0.1253842  0.6241937  0.4689248    0.00000       Uiso       1.00
       C56          C  0.6266475  0.1229057  0.6792843    0.00000       Uiso       1.00
       C57          C  0.9045203  0.6332364  0.2790976    0.00000       Uiso       1.00
       C58          C  0.4035867  0.1323833  0.4966423    0.00000       Uiso       1.00
       C59          C  0.0955086  0.3667626  0.2790976    0.00000       Uiso       1.00
       C60          C  0.5964422  0.8676157  0.4966423    0.00000       Uiso       1.00
       C61          C  0.9045203  0.3667626  0.2790976    0.00000       Uiso       1.00
       C62          C  0.4035867  0.8676157  0.4966423    0.00000       Uiso       1.00
       C63          C  0.0955086  0.6332364  0.2790976    0.00000       Uiso       1.00
       C64          C  0.5964422  0.1323833  0.4966423    0.00000       Uiso       1.00
       C65          C  0.9342648  0.6137599  0.2486221    0.00000       Uiso       1.00
       C66          C  0.4339541  0.1135050  0.4771256    0.00000       Uiso       1.00
       C67          C  0.0657640  0.3862392  0.2486221    0.00000       Uiso       1.00
       C68          C  0.5660748  0.8864940  0.4771256    0.00000       Uiso       1.00
       C69          C  0.9342648  0.3862392  0.2486221    0.00000       Uiso       1.00
       C70          C  0.4339541  0.8864940  0.4771256    0.00000       Uiso       1.00
       C71          C  0.0657640  0.6137599  0.2486221    0.00000       Uiso       1.00
       C72          C  0.5660748  0.1135050  0.4771256    0.00000       Uiso       1.00
       C73          C  0.8446615  0.6433872  0.5059654    0.00000       Uiso       1.00
       C74          C  0.3422508  0.1409190  0.6955290    0.00000       Uiso       1.00
       C75          C  0.1553673  0.3566118  0.5059654    0.00000       Uiso       1.00
       C76          C  0.6577780  0.8590801  0.6955290    0.00000       Uiso       1.00
       C77          C  0.8446615  0.3566118  0.5059654    0.00000       Uiso       1.00
       C78          C  0.3422508  0.8590801  0.6955290    0.00000       Uiso       1.00
       C79          C  0.1553673  0.6433872  0.5059654    0.00000       Uiso       1.00
       C80          C  0.6577780  0.1409190  0.6955290    0.00000       Uiso       1.00
        H1          H  0.9123855  0.5268347  0.2367122    0.00000       Uiso       1.00
        H2          H  0.4124486  0.0267991  0.4712294    0.00000       Uiso       1.00
        H3          H  0.0876434  0.4731643  0.2367122    0.00000       Uiso       1.00
        H4          H  0.5875802  0.9731999  0.4712294    0.00000       Uiso       1.00
        H5          H  0.9123855  0.4731643  0.2367122    0.00000       Uiso       1.00
        H6          H  0.4124486  0.9731999  0.4712294    0.00000       Uiso       1.00
        H7          H  0.0876434  0.5268347  0.2367122    0.00000       Uiso       1.00
        H8          H  0.5875802  0.0267991  0.4712294    0.00000       Uiso       1.00
        H9          H  0.9062083  0.5560016  0.7372566    0.00000       Uiso       1.00
       H10          H  0.4063732  0.0561435  0.9733394    0.00000       Uiso       1.00
       H11          H  0.0938206  0.4439974  0.7372566    0.00000       Uiso       1.00
       H12          H  0.5936556  0.9438555  0.9733394    0.00000       Uiso       1.00
       H13          H  0.9062083  0.4439974  0.7372566    0.00000       Uiso       1.00
       H14          H  0.4063732  0.9438555  0.9733394    0.00000       Uiso       1.00
       H15          H  0.0938206  0.5560016  0.7372566    0.00000       Uiso       1.00
       H16          H  0.5936556  0.0561435  0.9733394    0.00000       Uiso       1.00
       H17          H  0.8547014  0.5875849  0.7684246    0.00000       Uiso       1.00
       H18          H  0.3539423  0.0866512  0.9867486    0.00000       Uiso       1.00
       H19          H  0.1453274  0.4124142  0.7684246    0.00000       Uiso       1.00
       H20          H  0.6460866  0.9133478  0.9867486    0.00000       Uiso       1.00
       H21          H  0.8547014  0.4124142  0.7684246    0.00000       Uiso       1.00
       H22          H  0.3539423  0.9133478  0.9867486    0.00000       Uiso       1.00
       H23          H  0.1453274  0.5875849  0.7684246    0.00000       Uiso       1.00
       H24          H  0.6460866  0.0866512  0.9867486    0.00000       Uiso       1.00
       H25          H  0.9047010  0.6540620  0.1579305    0.00000       Uiso       1.00
       H26          H  0.4035020  0.1530082  0.3714764    0.00000       Uiso       1.00
       H27          H  0.0953279  0.3459370  0.1579305    0.00000       Uiso       1.00
       H28          H  0.5965269  0.8469908  0.3714764    0.00000       Uiso       1.00
       H29          H  0.9047010  0.3459370  0.1579305    0.00000       Uiso       1.00
       H30          H  0.4035020  0.8469908  0.3714764    0.00000       Uiso       1.00
       H31          H  0.0953279  0.6540620  0.1579305    0.00000       Uiso       1.00
       H32          H  0.5965269  0.1530082  0.3714764    0.00000       Uiso       1.00
       H33          H  0.9548171  0.6209976  0.1010182    0.00000       Uiso       1.00
       H34          H  0.4546970  0.1209493  0.3331429    0.00000       Uiso       1.00
       H35          H  0.0452118  0.3790014  0.1010182    0.00000       Uiso       1.00
       H36          H  0.5453319  0.8790498  0.3331429    0.00000       Uiso       1.00
       H37          H  0.9548171  0.3790014  0.1010182    0.00000       Uiso       1.00
       H38          H  0.4546970  0.8790498  0.3331429    0.00000       Uiso       1.00
       H39          H  0.0452118  0.6209976  0.1010182    0.00000       Uiso       1.00
       H40          H  0.5453319  0.1209493  0.3331429    0.00000       Uiso       1.00
       H41          H  0.8233015  0.6352157  0.6365504    0.00000       Uiso       1.00
       H42          H  0.3212587  0.1328135  0.8316899    0.00000       Uiso       1.00
       H43          H  0.1767274  0.3647833  0.6365504    0.00000       Uiso       1.00
       H44          H  0.6787701  0.8671855  0.8316899    0.00000       Uiso       1.00
       H45          H  0.8233015  0.3647833  0.6365504    0.00000       Uiso       1.00
       H46          H  0.3212587  0.8671855  0.8316899    0.00000       Uiso       1.00
       H47          H  0.1767274  0.6352157  0.6365504    0.00000       Uiso       1.00
       H48          H  0.6787701  0.1328135  0.8316899    0.00000       Uiso       1.00
        N1          N  0.8438208  0.6724695  0.3815711    0.00000       Uiso       1.00
        N2          N  0.3394407  0.1685797  0.5397049    0.00000       Uiso       1.00
        N3          N  0.1562081  0.3275295  0.3815711    0.00000       Uiso       1.00
        N4          N  0.6605881  0.8314193  0.5397049    0.00000       Uiso       1.00
        N5          N  0.8438208  0.3275295  0.3815711    0.00000       Uiso       1.00
        N6          N  0.3394407  0.8314193  0.5397049    0.00000       Uiso       1.00
        N7          N  0.1562081  0.6724695  0.3815711    0.00000       Uiso       1.00
        N8          N  0.6605881  0.1685797  0.5397049    0.00000       Uiso       1.00
       C81          C  0.0000144  0.5808378  0.4331990    0.00000       Uiso       1.00
       C82          C  0.0000144  0.4191612  0.4331990    0.00000       Uiso       1.00
       C83          C  0.5000144  0.0809435  0.6675822    0.00000       Uiso       1.00
       C84          C  0.5000144  0.9190555  0.6675822    0.00000       Uiso       1.00
       C85          C  0.0000144  0.4833999  0.3407114    0.00000       Uiso       1.00
       C86          C  0.0000144  0.5165992  0.3407114    0.00000       Uiso       1.00
       C87          C  0.5000144  0.9833937  0.5776911    0.00000       Uiso       1.00
       C88          C  0.5000144  0.0166053  0.5776911    0.00000       Uiso       1.00
       H49          H  0.0000144  0.6037667  0.4975468    0.00000       Uiso       1.00
       H50          H  0.0000144  0.3962322  0.4975468    0.00000       Uiso       1.00
       H51          H  0.5000144  0.1039201  0.7298947    0.00000       Uiso       1.00
       H52          H  0.5000144  0.8960788  0.7298947    0.00000       Uiso       1.00
       C89          C  0.1818506  0.3056069  0.3945980    0.00000       Uiso       1.00
       C90          C  0.1726063  0.2758035  0.2833467    0.00000       Uiso       1.00
       C91          C  0.1972469  0.2513638  0.2987223    0.00000       Uiso       1.00
       C92          C  0.2318030  0.2568559  0.4240150    0.00000       Uiso       1.00
        N9          N  0.2400589  0.2861302  0.5216372    0.00000       Uiso       1.00
       C93          C  0.2168383  0.3101130  0.5121065    0.00000       Uiso       1.00
       H53          H  0.1476809  0.2718394  0.1915617    0.00000       Uiso       1.00
       H54          H  0.1899789  0.2299132  0.2167435    0.00000       Uiso       1.00
       H55          H  0.2252374  0.3312318  0.5917527    0.00000       Uiso       1.00
       C94          C  0.6883316  0.8115833  0.5174556    0.00000       Uiso       1.00
       C95          C  0.6814787  0.7815559  0.3978287    0.00000       Uiso       1.00
       N10          N  0.7080815  0.7604834  0.3731624    0.00000       Uiso       1.00
       C96          C  0.7424671  0.7666131  0.4546110    0.00000       Uiso       1.00
       C97          C  0.7507719  0.7966092  0.5717959    0.00000       Uiso       1.00
       C98          C  0.7237288  0.8188848  0.6035714    0.00000       Uiso       1.00
       H56          H  0.6563447  0.7753252  0.3300995    0.00000       Uiso       1.00
       H57          H  0.7761568  0.8022462  0.6382339    0.00000       Uiso       1.00
       H58          H  0.7301148  0.8403692  0.6891968    0.00000       Uiso       1.00
       C99          C  0.8181782  0.6943921  0.3945980    0.00000       Uiso       1.00
      C100          C  0.8274226  0.7241955  0.2833467    0.00000       Uiso       1.00
      C101          C  0.8027820  0.7486352  0.2987223    0.00000       Uiso       1.00
      C102          C  0.7682259  0.7431431  0.4240150    0.00000       Uiso       1.00
       N11          N  0.7599700  0.7138689  0.5216372    0.00000       Uiso       1.00
      C103          C  0.7831905  0.6898860  0.5121065    0.00000       Uiso       1.00
       H59          H  0.8523480  0.7281595  0.1915617    0.00000       Uiso       1.00
       H60          H  0.8100500  0.7700858  0.2167435    0.00000       Uiso       1.00
       H61          H  0.7747915  0.6687673  0.5917527    0.00000       Uiso       1.00
      C104          C  0.3116972  0.1884156  0.5174556    0.00000       Uiso       1.00
      C105          C  0.3185501  0.2184432  0.3978287    0.00000       Uiso       1.00
       N12          N  0.2919473  0.2395156  0.3731624    0.00000       Uiso       1.00
      C106          C  0.2575618  0.2333859  0.4546110    0.00000       Uiso       1.00
      C107          C  0.2492570  0.2033898  0.5717959    0.00000       Uiso       1.00
      C108          C  0.2763001  0.1811142  0.6035714    0.00000       Uiso       1.00
       H62          H  0.3436841  0.2246738  0.3300995    0.00000       Uiso       1.00
       H63          H  0.2238721  0.1977528  0.6382339    0.00000       Uiso       1.00
       H64          H  0.2699141  0.1596299  0.6891968    0.00000       Uiso       1.00
      C109          C  0.1818506  0.6943921  0.3945980    0.00000       Uiso       1.00
      C110          C  0.1726063  0.7241955  0.2833467    0.00000       Uiso       1.00
      C111          C  0.1972469  0.7486352  0.2987223    0.00000       Uiso       1.00
      C112          C  0.2318030  0.7431431  0.4240150    0.00000       Uiso       1.00
       N13          N  0.2400589  0.7138689  0.5216372    0.00000       Uiso       1.00
      C113          C  0.2168383  0.6898860  0.5121065    0.00000       Uiso       1.00
       H65          H  0.1476809  0.7281595  0.1915617    0.00000       Uiso       1.00
       H66          H  0.1899789  0.7700858  0.2167435    0.00000       Uiso       1.00
       H67          H  0.2252374  0.6687673  0.5917527    0.00000       Uiso       1.00
      C114          C  0.6883316  0.1884156  0.5174556    0.00000       Uiso       1.00
      C115          C  0.6814787  0.2184432  0.3978287    0.00000       Uiso       1.00
       N14          N  0.7080815  0.2395156  0.3731624    0.00000       Uiso       1.00
      C116          C  0.7424671  0.2333859  0.4546110    0.00000       Uiso       1.00
      C117          C  0.7507719  0.2033898  0.5717959    0.00000       Uiso       1.00
      C118          C  0.7237288  0.1811142  0.6035714    0.00000       Uiso       1.00
       H68          H  0.6563447  0.2246738  0.3300995    0.00000       Uiso       1.00
       H69          H  0.7761568  0.1977528  0.6382339    0.00000       Uiso       1.00
       H70          H  0.7301148  0.1596299  0.6891968    0.00000       Uiso       1.00
      C119          C  0.8181782  0.3056069  0.3945980    0.00000       Uiso       1.00
      C120          C  0.8274226  0.2758035  0.2833467    0.00000       Uiso       1.00
      C121          C  0.8027820  0.2513638  0.2987223    0.00000       Uiso       1.00
      C122          C  0.7682259  0.2568559  0.4240150    0.00000       Uiso       1.00
       N15          N  0.7599700  0.2861302  0.5216372    0.00000       Uiso       1.00
      C123          C  0.7831905  0.3101130  0.5121065    0.00000       Uiso       1.00
       H71          H  0.8523480  0.2718394  0.1915617    0.00000       Uiso       1.00
       H72          H  0.8100500  0.2299132  0.2167435    0.00000       Uiso       1.00
       H73          H  0.7747915  0.3312318  0.5917527    0.00000       Uiso       1.00
      C124          C  0.3116972  0.8115833  0.5174556    0.00000       Uiso       1.00
      C125          C  0.3185501  0.7815559  0.3978287    0.00000       Uiso       1.00
       N16          N  0.2919473  0.7604834  0.3731624    0.00000       Uiso       1.00
      C126          C  0.2575618  0.7666131  0.4546110    0.00000       Uiso       1.00
      C127          C  0.2492570  0.7966092  0.5717959    0.00000       Uiso       1.00
      C128          C  0.2763001  0.8188848  0.6035714    0.00000       Uiso       1.00
       H74          H  0.3436841  0.7753252  0.3300995    0.00000       Uiso       1.00
       H75          H  0.2238721  0.8022462  0.6382339    0.00000       Uiso       1.00
       H76          H  0.2699141  0.8403692  0.6891968    0.00000       Uiso       1.00
