data_BBO-COF-1
_audit_creation_date              0000-00-00
_audit_creation_method            'LanYouShi'
_symmetry_space_group_name_H-M    'P1'
_cell_length_a                    21.0470009
_cell_length_b                    21.0470009
_cell_length_c                    3.5613999
_cell_angle_alpha                 90.0000000
_cell_angle_beta                  90.0000000
_cell_angle_gamma                 120.0000000
loop_
_atom_site_label
_atom_site_type_symbol
_atom_site_fract_x
_atom_site_fract_y
_atom_site_fract_z
_atom_site_U_iso_or_equiv
_atom_site_adp_type
_atom_site_occupancy
        C1          C  0.4993541  0.4340334  0.5000037    0.00000       Uiso       1.00
        C2          C  0.4342628  0.4996628  0.5000037    0.00000       Uiso       1.00
        C3          C  0.5659686  0.0653207  0.5000037    0.00000       Uiso       1.00
        C4          C  0.5003391  0.9346018  0.5000037    0.00000       Uiso       1.00
        C5          C  0.9346812  0.5006478  0.5000037    0.00000       Uiso       1.00
        C6          C  0.0654001  0.5657393  0.5000037    0.00000       Uiso       1.00
        C7          C  0.5006478  0.5659686  0.5000037    0.00000       Uiso       1.00
        C8          C  0.5657393  0.5003392  0.5000037    0.00000       Uiso       1.00
        C9          C  0.4340334  0.9346812  0.5000037    0.00000       Uiso       1.00
       C10          C  0.4996628  0.0654001  0.5000037    0.00000       Uiso       1.00
       C11          C  0.0653207  0.4993541  0.5000037    0.00000       Uiso       1.00
       C12          C  0.9346018  0.4342628  0.5000037    0.00000       Uiso       1.00
       C13          C  0.4314355  0.4315853  0.5000037    0.00000       Uiso       1.00
       C14          C  0.5684167  0.9998522  0.5000037    0.00000       Uiso       1.00
       C15          C  0.0001498  0.5685664  0.5000037    0.00000       Uiso       1.00
       C16          C  0.5685665  0.5684167  0.5000037    0.00000       Uiso       1.00
       C17          C  0.4315853  0.0001498  0.5000037    0.00000       Uiso       1.00
       C18          C  0.9998522  0.4314355  0.5000037    0.00000       Uiso       1.00
        O1          N  0.5139536  0.3792899  0.5000037    0.00000       Uiso       1.00
        O1          O  0.3794093  0.5147163  0.5000037    0.00000       Uiso       1.00
        O1          N  0.6207120  0.1346636  0.5000037    0.00000       Uiso       1.00
        O1          O  0.4852856  0.8646950  0.5000037    0.00000       Uiso       1.00
        O1          N  0.8653383  0.4860484  0.5000037    0.00000       Uiso       1.00
        O1          O  0.1353071  0.6205927  0.5000037    0.00000       Uiso       1.00
        O1          N  0.4860484  0.6207121  0.5000037    0.00000       Uiso       1.00
        O1          O  0.6205927  0.4852856  0.5000037    0.00000       Uiso       1.00
        O1          N  0.3792899  0.8653383  0.5000037    0.00000       Uiso       1.00
        O1          O  0.5147164  0.1353071  0.5000037    0.00000       Uiso       1.00
        O1          N  0.1346636  0.5139536  0.5000037    0.00000       Uiso       1.00
        O1          O  0.8646950  0.3794093  0.5000037    0.00000       Uiso       1.00
        B1          C  0.4120016  0.5893302  0.5000037    0.00000       Uiso       1.00
        B1          C  0.4106718  0.8226734  0.5000037    0.00000       Uiso       1.00
        B1          C  0.1773286  0.5880004  0.5000037    0.00000       Uiso       1.00
        B1          C  0.5880004  0.4106718  0.5000037    0.00000       Uiso       1.00
        B1          C  0.5893302  0.1773286  0.5000037    0.00000       Uiso       1.00
        B1          C  0.8226734  0.4120016  0.5000037    0.00000       Uiso       1.00
        H1          H  0.3829789  0.3833806  0.5000037    0.00000       Uiso       1.00
        H2          H  0.6170230  0.6166214  0.5000037    0.00000       Uiso       1.00
        H1          H  0.6166214  0.9996004  0.5000037    0.00000       Uiso       1.00
        H1          H  0.0004016  0.6170230  0.5000037    0.00000       Uiso       1.00
        H1          H  0.3833806  0.0004016  0.5000037    0.00000       Uiso       1.00
        H1          H  0.9996004  0.3829790  0.5000037    0.00000       Uiso       1.00
        C1          C  0.6280388  0.2549183  0.5000037    0.00000       Uiso       1.00
        C2          C  0.7450837  0.3731205  0.5000037    0.00000       Uiso       1.00
        C3          C  0.6268815  0.3719632  0.5000037    0.00000       Uiso       1.00
        C4          C  0.7056563  0.2955080  0.5000037    0.00000       Uiso       1.00
        C5          C  0.7044940  0.4101484  0.5000037    0.00000       Uiso       1.00
        C6          C  0.5898536  0.2943456  0.5000037    0.00000       Uiso       1.00
        C1          C  0.3719632  0.7450837  0.5000037    0.00000       Uiso       1.00
        C2          C  0.2549182  0.6268815  0.5000037    0.00000       Uiso       1.00
        C3          C  0.3731205  0.6280388  0.5000037    0.00000       Uiso       1.00
        C4          C  0.2943456  0.7044940  0.5000037    0.00000       Uiso       1.00
        C5          C  0.2955080  0.5898536  0.5000037    0.00000       Uiso       1.00
        C6          C  0.4101484  0.7056563  0.5000037    0.00000       Uiso       1.00
        H1          H  0.5335862  0.2657713  0.5000037    0.00000       Uiso       1.00
        H2          H  0.7342308  0.2678150  0.5000037    0.00000       Uiso       1.00
        H3          H  0.7321870  0.4664157  0.5000037    0.00000       Uiso       1.00
        H1          H  0.4664158  0.7342307  0.5000037    0.00000       Uiso       1.00
        H2          H  0.2657713  0.7321870  0.5000037    0.00000       Uiso       1.00
        H3          H  0.2678149  0.5335862  0.5000037    0.00000       Uiso       1.00
