data_crystal

_cell_length_a    25.89350
_cell_length_b    25.89350
_cell_length_c    32.68350
_cell_angle_alpha 90.00000
_cell_angle_beta  90.00000
_cell_angle_gamma 90.00000

_space_group_name_Hall 'P 1'
_space_group_name_H-M_alt  'P 1'

loop_
_symmetry_equiv_pos_as_xyz
'x,y,z' 

loop_
_atom_site_label
_atom_site_type_symbol
_atom_site_fract_x
_atom_site_fract_y
_atom_site_fract_z
C          C       0.01874   0.62182   0.97954 
C          C       0.98126   0.37818   0.97954 
C          C       0.37818   0.01874   0.47954 
C          C       0.62182   0.98126   0.47954 
C          C       0.98126   0.37818   0.02046 
C          C       0.01874   0.62182   0.02046 
C          C       0.62182   0.98126   0.52046 
C          C       0.37818   0.01874   0.52046 
C          C       0.07307   0.69085   0.94828 
C          C       0.92693   0.30915   0.94828 
C          C       0.30915   0.07307   0.44828 
C          C       0.69085   0.92693   0.44828 
C          C       0.92693   0.30915   0.05172 
C          C       0.07307   0.69085   0.05172 
C          C       0.69085   0.92693   0.55172 
C          C       0.30915   0.07307   0.55172 
C          C       0.07817   0.73528   0.92433 
C          C       0.92183   0.26472   0.92433 
C          C       0.26472   0.07817   0.42433 
C          C       0.73528   0.92183   0.42433 
C          C       0.92183   0.26472   0.07567 
C          C       0.07817   0.73528   0.07567 
C          C       0.73528   0.92183   0.57567 
C          C       0.26472   0.07817   0.57567 
C          C       0.03450   0.75862   0.90680 
C          C       0.96550   0.24138   0.90680 
C          C       0.24138   0.03450   0.40680 
C          C       0.75862   0.96550   0.40680 
C          C       0.96550   0.24138   0.09320 
C          C       0.03450   0.75862   0.09320 
C          C       0.75862   0.96550   0.59320 
C          C       0.24138   0.03450   0.59320 
C          C       0.98548   0.73694   0.91396 
C          C       0.01452   0.26306   0.91396 
C          C       0.26306   0.98548   0.41396 
C          C       0.73694   0.01452   0.41396 
C          C       0.01452   0.26306   0.08604 
C          C       0.98548   0.73694   0.08604 
C          C       0.73694   0.01452   0.58604 
C          C       0.26306   0.98548   0.58604 
C          C       0.98046   0.69252   0.93794 
C          C       0.01954   0.30748   0.93794 
C          C       0.30748   0.98046   0.43794 
C          C       0.69252   0.01954   0.43794 
C          C       0.01954   0.30748   0.06206 
C          C       0.98046   0.69252   0.06206 
C          C       0.69252   0.01954   0.56206 
C          C       0.30748   0.98046   0.56206 
C          C       0.02419   0.66938   0.95524 
C          C       0.97581   0.33062   0.95524 
C          C       0.33062   0.02419   0.45524 
C          C       0.66938   0.97581   0.45524 
C          C       0.97581   0.33062   0.04476 
C          C       0.02419   0.66938   0.04476 
C          C       0.66938   0.97581   0.54476 
C          C       0.33062   0.02419   0.54476 
N          N       0.00145   0.82586   0.86281 
N          N       0.99855   0.17414   0.86281 
N          N       0.17414   0.00145   0.36281 
N          N       0.82586   0.99855   0.36281 
N          N       0.99855   0.17414   0.13719 
N          N       0.00145   0.82586   0.13719 
N          N       0.82586   0.99855   0.63719 
N          N       0.17414   0.00145   0.63719 
C          C       0.04102   0.80463   0.88060 
C          C       0.95898   0.19537   0.88060 
C          C       0.19537   0.04102   0.38060 
C          C       0.80463   0.95898   0.38060 
C          C       0.95898   0.19537   0.11940 
C          C       0.04102   0.80463   0.11940 
C          C       0.80463   0.95898   0.61940 
C          C       0.19537   0.04102   0.61940 
S          S       0.99079   0.43821   0.04719 
S          S       0.00921   0.56179   0.04719 
S          S       0.56179   0.99079   0.54719 
S          S       0.43821   0.00921   0.54719 
S          S       0.00921   0.56179   0.95281 
S          S       0.99079   0.43821   0.95281 
S          S       0.43821   0.00921   0.45281 
S          S       0.56179   0.99079   0.45281 
C          C       0.86974   0.99787   0.66416 
C          C       0.13026   0.00213   0.66416 
C          C       0.00213   0.86974   0.16416 
C          C       0.99787   0.13026   0.16416 
C          C       0.13026   0.00213   0.33584 
C          C       0.86974   0.99787   0.33584 
C          C       0.99787   0.13026   0.83584 
C          C       0.00213   0.86974   0.83584 
C          C       0.95451   0.09810   0.83110 
C          C       0.04549   0.90190   0.83110 
C          C       0.90190   0.95451   0.33110 
C          C       0.09810   0.04549   0.33110 
C          C       0.04549   0.90190   0.16890 
C          C       0.95451   0.09810   0.16890 
C          C       0.09810   0.04549   0.66890 
C          C       0.90190   0.95451   0.66890 
C          C       0.95588   0.05676   0.80366 
C          C       0.04412   0.94324   0.80366 
C          C       0.94324   0.95588   0.30366 
C          C       0.05676   0.04412   0.30366 
C          C       0.04412   0.94324   0.19634 
C          C       0.95588   0.05676   0.19634 
C          C       0.05676   0.04412   0.69634 
C          C       0.94324   0.95588   0.69634 
C          C       0.99992   0.04697   0.77936 
C          C       0.00008   0.95303   0.77936 
C          C       0.95303   0.99992   0.27936 
C          C       0.04697   0.00008   0.27936 
C          C       0.00008   0.95303   0.22064 
C          C       0.99992   0.04697   0.22064 
C          C       0.04697   0.00008   0.72064 
C          C       0.95303   0.99992   0.72064 
C          C       0.04427   0.07744   0.78660 
C          C       0.95573   0.92256   0.78660 
C          C       0.92256   0.04427   0.28660 
C          C       0.07744   0.95573   0.28660 
C          C       0.95573   0.92256   0.21340 
C          C       0.04427   0.07744   0.21340 
C          C       0.07744   0.95573   0.71340 
C          C       0.92256   0.04427   0.71340 
C          C       0.04284   0.11876   0.81404 
C          C       0.95716   0.88124   0.81404 
C          C       0.88124   0.04284   0.31404 
C          C       0.11876   0.95716   0.31404 
C          C       0.95716   0.88124   0.18596 
C          C       0.04284   0.11876   0.18596 
C          C       0.11876   0.95716   0.68596 
C          C       0.88124   0.04284   0.68596 
H          H       0.10723   0.67295   0.96109 
H          H       0.89277   0.32705   0.96109 
H          H       0.32705   0.10723   0.46109 
H          H       0.67295   0.89277   0.46109 
H          H       0.89277   0.32705   0.03891 
H          H       0.10723   0.67295   0.03891 
H          H       0.67295   0.89277   0.53891 
H          H       0.32705   0.10723   0.53891 
H          H       0.11632   0.75116   0.91915 
H          H       0.88368   0.24884   0.91915 
H          H       0.24884   0.11632   0.41915 
H          H       0.75116   0.88368   0.41915 
H          H       0.88368   0.24884   0.08085 
H          H       0.11632   0.75116   0.08085 
H          H       0.75116   0.88368   0.58085 
H          H       0.24884   0.11632   0.58085 
H          H       0.95110   0.75401   0.90082 
H          H       0.04890   0.24599   0.90082 
H          H       0.24599   0.95110   0.40082 
H          H       0.75401   0.04890   0.40082 
H          H       0.04890   0.24599   0.09918 
H          H       0.95110   0.75401   0.09918 
H          H       0.75401   0.04890   0.59918 
H          H       0.24599   0.95110   0.59918 
H          H       0.94251   0.67610   0.94296 
H          H       0.05749   0.32390   0.94296 
H          H       0.32390   0.94251   0.44296 
H          H       0.67610   0.05749   0.44296 
H          H       0.05749   0.32390   0.05704 
H          H       0.94251   0.67610   0.05704 
H          H       0.67610   0.05749   0.55704 
H          H       0.32390   0.94251   0.55704 
H          H       0.07969   0.81898   0.87547 
H          H       0.92031   0.18102   0.87547 
H          H       0.18102   0.07969   0.37547 
H          H       0.81898   0.92031   0.37547 
H          H       0.92031   0.18102   0.12453 
H          H       0.07969   0.81898   0.12453 
H          H       0.81898   0.92031   0.62453 
H          H       0.18102   0.07969   0.62453 
H          H       0.91967   0.10395   0.84867 
H          H       0.08033   0.89605   0.84867 
H          H       0.89605   0.91967   0.34867 
H          H       0.10395   0.08033   0.34867 
H          H       0.08033   0.89605   0.15133 
H          H       0.91967   0.10395   0.15133 
H          H       0.10395   0.08033   0.65133 
H          H       0.89605   0.91967   0.65133 
H          H       0.92204   0.03241   0.80097 
H          H       0.07796   0.96759   0.80097 
H          H       0.96759   0.92204   0.30097 
H          H       0.03241   0.07796   0.30097 
H          H       0.07796   0.96759   0.19903 
H          H       0.92204   0.03241   0.19903 
H          H       0.03241   0.07796   0.69903 
H          H       0.96759   0.92204   0.69903 
H          H       0.08065   0.06927   0.77177 
H          H       0.91935   0.93073   0.77177 
H          H       0.93073   0.08065   0.27177 
H          H       0.06927   0.91935   0.27177 
H          H       0.91935   0.93073   0.22823 
H          H       0.08065   0.06927   0.22823 
H          H       0.06927   0.91935   0.72823 
H          H       0.93073   0.08065   0.72823 
H          H       0.07714   0.14207   0.81838 
H          H       0.92286   0.85793   0.81838 
H          H       0.85793   0.07714   0.31838 
H          H       0.14207   0.92286   0.31838 
H          H       0.92286   0.85793   0.18162 
H          H       0.07714   0.14207   0.18162 
H          H       0.14207   0.92286   0.68162 
H          H       0.85793   0.07714   0.68162 
C          C       0.99611   0.47427   0.00000 
C          C       0.00389   0.52573   0.00000 
C          C       0.52573   0.99611   0.50000 
C          C       0.47427   0.00389   0.50000 
C          C       0.00000   0.00000   0.75000 
C          C       0.00000   0.00000   0.25000 
