data_crystal
 
_cell_length_a    18.66120
_cell_length_b    18.66120
_cell_length_c    30.68450
_cell_angle_alpha 90.00000
_cell_angle_beta  90.00000
_cell_angle_gamma 90.00000
 
_symmetry_space_group_name_Hall 'P 1'
_symmetry_space_group_name_H-M  'P 1'
 
loop_
_symmetry_equiv_pos_as_xyz
 'x,y,z' 
 
loop_
_atom_site_label
_atom_site_type_symbol
_atom_site_fract_x
_atom_site_fract_y
_atom_site_fract_z
_atom_site_charge
C          C       0.87686   0.89063   0.97736   0.0000000000
C          C       0.12314   0.10937   0.97736   0.0000000000
C          C       0.10937   0.87686   0.47736   0.0000000000
C          C       0.89063   0.12314   0.47736   0.0000000000
C          C       0.12314   0.10937   0.02264   0.0000000000
C          C       0.87686   0.89063   0.02264   0.0000000000
C          C       0.89063   0.12314   0.52264   0.0000000000
C          C       0.10937   0.87686   0.52264   0.0000000000
C          C       0.41039   0.33922   0.80769   0.0000000000
C          C       0.58961   0.66078   0.80769   0.0000000000
C          C       0.66078   0.41039   0.30769   0.0000000000
C          C       0.33922   0.58961   0.30769   0.0000000000
C          C       0.58961   0.66078   0.19231   0.0000000000
C          C       0.41039   0.33922   0.19231   0.0000000000
C          C       0.33922   0.58961   0.69231   0.0000000000
C          C       0.66078   0.41039   0.69231   0.0000000000
C          C       0.45362   0.37913   0.77961   0.0000000000
C          C       0.54638   0.62087   0.77961   0.0000000000
C          C       0.62087   0.45362   0.27961   0.0000000000
C          C       0.37913   0.54638   0.27961   0.0000000000
C          C       0.54638   0.62087   0.22039   0.0000000000
C          C       0.45362   0.37913   0.22039   0.0000000000
C          C       0.37913   0.54638   0.72039   0.0000000000
C          C       0.62087   0.45362   0.72039   0.0000000000
C          C       0.45215   0.45447   0.78018   0.0000000000
C          C       0.54785   0.54553   0.78018   0.0000000000
C          C       0.54553   0.45215   0.28018   0.0000000000
C          C       0.45447   0.54785   0.28018   0.0000000000
C          C       0.54785   0.54553   0.21982   0.0000000000
C          C       0.45215   0.45447   0.21982   0.0000000000
C          C       0.45447   0.54785   0.71982   0.0000000000
C          C       0.54553   0.45215   0.71982   0.0000000000
C          C       0.40712   0.48846   0.81066   0.0000000000
C          C       0.59288   0.51154   0.81066   0.0000000000
C          C       0.51154   0.40712   0.31066   0.0000000000
C          C       0.48846   0.59288   0.31066   0.0000000000
C          C       0.59288   0.51154   0.18934   0.0000000000
C          C       0.40712   0.48846   0.18934   0.0000000000
C          C       0.48846   0.59288   0.68934   0.0000000000
C          C       0.51154   0.40712   0.68934   0.0000000000
C          C       0.36380   0.44859   0.83876   0.0000000000
C          C       0.63620   0.55141   0.83876   0.0000000000
C          C       0.55141   0.36380   0.33876   0.0000000000
C          C       0.44859   0.63620   0.33876   0.0000000000
C          C       0.63620   0.55141   0.16124   0.0000000000
C          C       0.36380   0.44859   0.16124   0.0000000000
C          C       0.44859   0.63620   0.66124   0.0000000000
C          C       0.55141   0.36380   0.66124   0.0000000000
C          C       0.36488   0.37385   0.83735   0.0000000000
C          C       0.63512   0.62615   0.83735   0.0000000000
C          C       0.62615   0.36488   0.33735   0.0000000000
C          C       0.37385   0.63512   0.33735   0.0000000000
C          C       0.63512   0.62615   0.16265   0.0000000000
C          C       0.36488   0.37385   0.16265   0.0000000000
C          C       0.37385   0.63512   0.66265   0.0000000000
C          C       0.62615   0.36488   0.66265   0.0000000000
S          S       0.05514   0.93692   0.45196   0.0000000000
S          S       0.94486   0.06308   0.45196   0.0000000000
S          S       0.06308   0.05514   0.95196   0.0000000000
S          S       0.93692   0.94486   0.95196   0.0000000000
S          S       0.94486   0.06308   0.54804   0.0000000000
S          S       0.05514   0.93692   0.54804   0.0000000000
S          S       0.93692   0.94486   0.04804   0.0000000000
S          S       0.06308   0.05514   0.04804   0.0000000000
C          C       0.15013   0.82566   0.45058   0.0000000000
C          C       0.84987   0.17434   0.45058   0.0000000000
C          C       0.17434   0.15013   0.95058   0.0000000000
C          C       0.82566   0.84987   0.95058   0.0000000000
C          C       0.84987   0.17434   0.54942   0.0000000000
C          C       0.15013   0.82566   0.54942   0.0000000000
C          C       0.82566   0.84987   0.04942   0.0000000000
C          C       0.17434   0.15013   0.04942   0.0000000000
C          C       0.22513   0.82630   0.45055   0.0000000000
C          C       0.77487   0.17370   0.45055   0.0000000000
C          C       0.17370   0.22513   0.95055   0.0000000000
C          C       0.82630   0.77487   0.95055   0.0000000000
C          C       0.77487   0.17370   0.54945   0.0000000000
C          C       0.22513   0.82630   0.54945   0.0000000000
C          C       0.82630   0.77487   0.04945   0.0000000000
C          C       0.17370   0.22513   0.04945   0.0000000000
C          C       0.26324   0.77953   0.42360   0.0000000000
C          C       0.73676   0.22047   0.42360   0.0000000000
C          C       0.22047   0.26324   0.92360   0.0000000000
C          C       0.77953   0.73676   0.92360   0.0000000000
C          C       0.73676   0.22047   0.57640   0.0000000000
C          C       0.26324   0.77953   0.57640   0.0000000000
C          C       0.77953   0.73676   0.07640   0.0000000000
C          C       0.22047   0.26324   0.07640   0.0000000000
C          C       0.22657   0.73205   0.39612   0.0000000000
C          C       0.77343   0.26795   0.39612   0.0000000000
C          C       0.26795   0.22657   0.89612   0.0000000000
C          C       0.73205   0.77343   0.89612   0.0000000000
C          C       0.77343   0.26795   0.60388   0.0000000000
C          C       0.22657   0.73205   0.60388   0.0000000000
C          C       0.73205   0.77343   0.10388   0.0000000000
C          C       0.26795   0.22657   0.10388   0.0000000000
C          C       0.15171   0.73196   0.39576   0.0000000000
C          C       0.84829   0.26804   0.39576   0.0000000000
C          C       0.26804   0.15171   0.89576   0.0000000000
C          C       0.73196   0.84829   0.89576   0.0000000000
C          C       0.84829   0.26804   0.60424   0.0000000000
C          C       0.15171   0.73196   0.60424   0.0000000000
C          C       0.73196   0.84829   0.10424   0.0000000000
C          C       0.26804   0.15171   0.10424   0.0000000000
C          C       0.11364   0.77871   0.42275   0.0000000000
C          C       0.88636   0.22129   0.42275   0.0000000000
C          C       0.22129   0.11364   0.92275   0.0000000000
C          C       0.77871   0.88636   0.92275   0.0000000000
C          C       0.88636   0.22129   0.57725   0.0000000000
C          C       0.11364   0.77871   0.57725   0.0000000000
C          C       0.77871   0.88636   0.07725   0.0000000000
C          C       0.22129   0.11364   0.07725   0.0000000000
N          N       0.33447   0.68123   0.36594   0.0000000000
N          N       0.66553   0.31877   0.36594   0.0000000000
N          N       0.31877   0.33447   0.86594   0.0000000000
N          N       0.68123   0.66553   0.86594   0.0000000000
N          N       0.66553   0.31877   0.63406   0.0000000000
N          N       0.33447   0.68123   0.63406   0.0000000000
N          N       0.68123   0.66553   0.13406   0.0000000000
N          N       0.31877   0.33447   0.13406   0.0000000000
C          C       0.26509   0.68329   0.36692   0.0000000000
C          C       0.73491   0.31671   0.36692   0.0000000000
C          C       0.31671   0.26509   0.86692   0.0000000000
C          C       0.68329   0.73491   0.86692   0.0000000000
C          C       0.73491   0.31671   0.63308   0.0000000000
C          C       0.26509   0.68329   0.63308   0.0000000000
C          C       0.68329   0.73491   0.13308   0.0000000000
C          C       0.31671   0.26509   0.13308   0.0000000000
H          H       0.41196   0.27821   0.80657   0.0000000000
H          H       0.58804   0.72179   0.80657   0.0000000000
H          H       0.72179   0.41196   0.30657   0.0000000000
H          H       0.27821   0.58804   0.30657   0.0000000000
H          H       0.58804   0.72179   0.19343   0.0000000000
H          H       0.41196   0.27821   0.19343   0.0000000000
H          H       0.27821   0.58804   0.69343   0.0000000000
H          H       0.72179   0.41196   0.69343   0.0000000000
H          H       0.49050   0.34980   0.75599   0.0000000000
H          H       0.50950   0.65020   0.75599   0.0000000000
H          H       0.65020   0.49050   0.25599   0.0000000000
H          H       0.34980   0.50950   0.25599   0.0000000000
H          H       0.50950   0.65020   0.24401   0.0000000000
H          H       0.49050   0.34980   0.24401   0.0000000000
H          H       0.34980   0.50950   0.74401   0.0000000000
H          H       0.65020   0.49050   0.74401   0.0000000000
H          H       0.40637   0.54945   0.81219   0.0000000000
H          H       0.59363   0.45055   0.81219   0.0000000000
H          H       0.45055   0.40637   0.31219   0.0000000000
H          H       0.54945   0.59363   0.31219   0.0000000000
H          H       0.59363   0.45055   0.18781   0.0000000000
H          H       0.40637   0.54945   0.18781   0.0000000000
H          H       0.54945   0.59363   0.68781   0.0000000000
H          H       0.45055   0.40637   0.68781   0.0000000000
H          H       0.32745   0.47738   0.86293   0.0000000000
H          H       0.67255   0.52262   0.86293   0.0000000000
H          H       0.52262   0.32745   0.36293   0.0000000000
H          H       0.47738   0.67255   0.36293   0.0000000000
H          H       0.67255   0.52262   0.13707   0.0000000000
H          H       0.32745   0.47738   0.13707   0.0000000000
H          H       0.47738   0.67255   0.63707   0.0000000000
H          H       0.52262   0.32745   0.63707   0.0000000000
H          H       0.25535   0.86510   0.47257   0.0000000000
H          H       0.74465   0.13490   0.47257   0.0000000000
H          H       0.13490   0.25535   0.97257   0.0000000000
H          H       0.86510   0.74465   0.97257   0.0000000000
H          H       0.74465   0.13490   0.52743   0.0000000000
H          H       0.25535   0.86510   0.52743   0.0000000000
H          H       0.86510   0.74465   0.02743   0.0000000000
H          H       0.13490   0.25535   0.02743   0.0000000000
H          H       0.32429   0.77993   0.42392   0.0000000000
H          H       0.67571   0.22007   0.42392   0.0000000000
H          H       0.22007   0.32429   0.92392   0.0000000000
H          H       0.77993   0.67571   0.92392   0.0000000000
H          H       0.67571   0.22007   0.57608   0.0000000000
H          H       0.32429   0.77993   0.57608   0.0000000000
H          H       0.77993   0.67571   0.07608   0.0000000000
H          H       0.22007   0.32429   0.07608   0.0000000000
H          H       0.12172   0.69358   0.37336   0.0000000000
H          H       0.87828   0.30642   0.37336   0.0000000000
H          H       0.30642   0.12172   0.87336   0.0000000000
H          H       0.69358   0.87828   0.87336   0.0000000000
H          H       0.87828   0.30642   0.62664   0.0000000000
H          H       0.12172   0.69358   0.62664   0.0000000000
H          H       0.69358   0.87828   0.12664   0.0000000000
H          H       0.30642   0.12172   0.12664   0.0000000000
H          H       0.05259   0.77876   0.42217   0.0000000000
H          H       0.94741   0.22124   0.42217   0.0000000000
H          H       0.22124   0.05259   0.92217   0.0000000000
H          H       0.77876   0.94741   0.92217   0.0000000000
H          H       0.94741   0.22124   0.57783   0.0000000000
H          H       0.05259   0.77876   0.57783   0.0000000000
H          H       0.77876   0.94741   0.07783   0.0000000000
H          H       0.22124   0.05259   0.07783   0.0000000000
H          H       0.23261   0.64664   0.34474   0.0000000000
H          H       0.76739   0.35336   0.34474   0.0000000000
H          H       0.35336   0.23261   0.84474   0.0000000000
H          H       0.64664   0.76739   0.84474   0.0000000000
H          H       0.76739   0.35336   0.65526   0.0000000000
H          H       0.23261   0.64664   0.65526   0.0000000000
H          H       0.64664   0.76739   0.15526   0.0000000000
H          H       0.35336   0.23261   0.15526   0.0000000000
C          C       0.02401   0.97280   0.50000   0.0000000000
C          C       0.97599   0.02720   0.50000   0.0000000000
C          C       0.02720   0.02401   0.00000   0.0000000000
C          C       0.97280   0.97599   0.00000   0.0000000000
C          C       0.50000   0.50000   0.25000   0.0000000000
C          C       0.50000   0.50000   0.75000   0.0000000000
