data_crystal
 
_cell_length_a    31.99820
_cell_length_b    31.52910
_cell_length_c    8.56804
_cell_angle_alpha 90.40390
_cell_angle_beta  89.91880
_cell_angle_gamma 92.45250
 
_symmetry_space_group_name_Hall 'P 1'
_symmetry_space_group_name_H-M  'P 1'
 
loop_
_symmetry_equiv_pos_as_xyz
 'x,y,z' 
 
loop_
_atom_site_label
_atom_site_type_symbol
_atom_site_fract_x
_atom_site_fract_y
_atom_site_fract_z
_atom_site_charge
H          H       0.15384   0.28197   0.00912   0.0000000000
H          H       0.14427   0.11251   0.02055   0.0000000000
H          H       0.19835   0.05418   0.03524   0.0000000000
H          H       0.42210   0.09479   0.03546   0.0000000000
H          H       0.43176   0.26400   0.02733   0.0000000000
H          H       0.37757   0.32230   0.02460   0.0000000000
H          H       0.26137   0.16835   0.02078   0.0000000000
H          H       0.31483   0.20791   0.01430   0.0000000000
H          H       0.13546   0.14962   0.25176   0.0000000000
H          H       0.06202   0.13830   0.25010   0.0000000000
H          H       0.44412   0.22636   0.25010   0.0000000000
H          H       0.51825   0.23278   0.24362   0.0000000000
H          H       0.24944   0.35022   0.16411   0.0000000000
H          H       0.32793   0.03306   0.20792   0.0000000000
H          H       0.33278   0.95902   0.18688   0.0000000000
H          H       0.21389   0.33095   0.44777   0.0000000000
H          H       0.36260   0.04510   0.47805   0.0000000000
H          H       0.12093   0.24336   0.37983   0.0000000000
H          H       0.04729   0.23819   0.40716   0.0000000000
H          H       0.45096   0.13195   0.37776   0.0000000000
H          H       0.52504   0.13188   0.40223   0.0000000000
H          H       0.34476   0.33911   0.30031   0.0000000000
H          H       0.35264   0.41371   0.29878   0.0000000000
H          H       0.23337   0.02978   0.33690   0.0000000000
H          H       0.23229   0.95521   0.34434   0.0000000000
H          H       0.25161   0.42481   0.13447   0.0000000000
H          H       0.34430   0.54305   0.14006   0.0000000000
H          H       0.35014   0.61713   0.18198   0.0000000000
H          H       0.34350   0.74028   0.22492   0.0000000000
H          H       0.41562   0.75757   0.22449   0.0000000000
H          H       0.23021   0.75451   0.23703   0.0000000000
H          H       0.23499   0.63408   0.22062   0.0000000000
H          H       0.23052   0.82942   0.23218   0.0000000000
H          H       0.16149   0.62176   0.21535   0.0000000000
H          H       0.23946   0.56221   0.32992   0.0000000000
H          H       0.24844   0.63619   0.35205   0.0000000000
H          H       0.36696   0.64290   0.37617   0.0000000000
H          H       0.43954   0.65600   0.40016   0.0000000000
H          H       0.33179   0.75318   0.39855   0.0000000000
H          H       0.21872   0.73622   0.38713   0.0000000000
H          H       0.33551   0.82803   0.41506   0.0000000000
H          H       0.14505   0.72685   0.40047   0.0000000000
H          H       0.93614   0.61434   0.00912   0.0000000000
H          H       0.94584   0.78379   0.02055   0.0000000000
H          H       0.89180   0.84216   0.03524   0.0000000000
H          H       0.66802   0.80172   0.03546   0.0000000000
H          H       0.65823   0.63251   0.02733   0.0000000000
H          H       0.71238   0.57417   0.02460   0.0000000000
H          H       0.82869   0.72804   0.02078   0.0000000000
H          H       0.77521   0.68851   0.01430   0.0000000000
H          H       0.95462   0.74667   0.25176   0.0000000000
H          H       0.02397   0.75669   0.25010   0.0000000000
H          H       0.64590   0.67016   0.25010   0.0000000000
H          H       0.57176   0.66380   0.24362   0.0000000000
H          H       0.84049   0.54616   0.16411   0.0000000000
H          H       0.76224   0.86337   0.20792   0.0000000000
H          H       0.75476   0.93781   0.18688   0.0000000000
H          H       0.87605   0.56540   0.44777   0.0000000000
H          H       0.72756   0.85137   0.47805   0.0000000000
H          H       0.96908   0.65292   0.37983   0.0000000000
H          H       0.03862   0.65679   0.40716   0.0000000000
H          H       0.63914   0.76458   0.37776   0.0000000000
H          H       0.56505   0.76470   0.40223   0.0000000000
H          H       0.74518   0.55733   0.30031   0.0000000000
H          H       0.73725   0.48275   0.29878   0.0000000000
H          H       0.85680   0.86658   0.33690   0.0000000000
H          H       0.85526   0.94155   0.34434   0.0000000000
H          H       0.74548   0.35342   0.14006   0.0000000000
H          H       0.73959   0.27935   0.18198   0.0000000000
H          H       0.74614   0.15619   0.22492   0.0000000000
H          H       0.67401   0.13896   0.22449   0.0000000000
H          H       0.85942   0.14187   0.23703   0.0000000000
H          H       0.85473   0.26231   0.22062   0.0000000000
H          H       0.85905   0.06697   0.23218   0.0000000000
H          H       0.92824   0.27457   0.21535   0.0000000000
H          H       0.85031   0.33419   0.32992   0.0000000000
H          H       0.84127   0.26021   0.35205   0.0000000000
H          H       0.72275   0.25359   0.37617   0.0000000000
H          H       0.65016   0.24054   0.40016   0.0000000000
H          H       0.75784   0.14328   0.39855   0.0000000000
H          H       0.87092   0.16016   0.38713   0.0000000000
H          H       0.75406   0.06844   0.41506   0.0000000000
H          H       0.94460   0.16947   0.40047   0.0000000000
C          C       0.18572   0.27282   0.00260   0.0000000000
C          C       0.20310   0.23205   0.02085   0.0000000000
C          C       0.18016   0.19547   0.03633   0.0000000000
C          C       0.19802   0.15578   0.02897   0.0000000000
C          C       0.17703   0.11744   0.02666   0.0000000000
C          C       0.20544   0.08670   0.02884   0.0000000000
C          C       0.24492   0.10489   0.02207   0.0000000000
C          C       0.39025   0.10382   0.02424   0.0000000000
C          C       0.32162   0.10159   0.00671   0.0000000000
C          C       0.39573   0.18120   0.04163   0.0000000000
C          C       0.37802   0.22082   0.03010   0.0000000000
C          C       0.39895   0.25911   0.02715   0.0000000000
C          C       0.37047   0.28975   0.02061   0.0000000000
C          C       0.33106   0.27142   0.00973   0.0000000000
C          C       0.28242   0.08347   0.01223   0.0000000000
C          C       0.37270   0.14467   0.03312   0.0000000000
C          C       0.13520   0.19617   0.05624   0.0000000000
C          C       0.11672   0.16783   0.16577   0.0000000000
C          C       0.07492   0.16186   0.16805   0.0000000000
C          C       0.04927   0.18676   0.07038   0.0000000000
C          C       0.44074   0.17950   0.05650   0.0000000000
C          C       0.46130   0.20693   0.16337   0.0000000000
C          C       0.50343   0.21003   0.16321   0.0000000000
C          C       0.52696   0.18312   0.06604   0.0000000000
C          C       0.27068   0.36353   0.07333   0.0000000000
C          C       0.27239   0.40590   0.05992   0.0000000000
C          C       0.28122   0.03805   0.01514   0.0000000000
C          C       0.30893   0.01651   0.11769   0.0000000000
C          C       0.31007   0.97467   0.10890   0.0000000000
C          C       0.28355   0.95194   0.00692   0.0000000000
C          C       0.25437   0.27476   0.49603   0.0000000000
C          C       0.21704   0.29860   0.47978   0.0000000000
C          C       0.35906   0.07768   0.00471   0.0000000000
C          C       0.29364   0.29275   0.49841   0.0000000000
C          C       0.10883   0.22174   0.47212   0.0000000000
C          C       0.06671   0.21847   0.48460   0.0000000000
C          C       0.46494   0.15249   0.46981   0.0000000000
C          C       0.50719   0.15281   0.48042   0.0000000000
C          C       0.29644   0.33807   0.48679   0.0000000000
C          C       0.32543   0.35740   0.38348   0.0000000000
C          C       0.32971   0.39968   0.38014   0.0000000000
C          C       0.25453   0.01470   0.42377   0.0000000000
C          C       0.25297   0.97253   0.42537   0.0000000000
C          C       0.30235   0.42456   0.46891   0.0000000000
C          C       0.10330   0.67111   0.06181   0.0000000000
C          C       0.36368   0.72297   0.14169   0.0000000000
C          C       0.40498   0.73226   0.14567   0.0000000000
C          C       0.43326   0.70822   0.05761   0.0000000000
C          C       0.28175   0.74741   0.06792   0.0000000000
C          C       0.25298   0.77018   0.15974   0.0000000000
C          C       0.21587   0.65359   0.14080   0.0000000000
C          C       0.25335   0.81266   0.15896   0.0000000000
C          C       0.17404   0.64699   0.14105   0.0000000000
C          C       0.28359   0.83417   0.07152   0.0000000000
C          C       0.29071   0.54701   0.49051   0.0000000000
C          C       0.26381   0.57420   0.41031   0.0000000000
C          C       0.32267   0.56361   0.08584   0.0000000000
C          C       0.26836   0.61625   0.42631   0.0000000000
C          C       0.32616   0.60561   0.10719   0.0000000000
C          C       0.29864   0.63303   0.03069   0.0000000000
C          C       0.30750   0.67674   0.05151   0.0000000000
C          C       0.34832   0.69088   0.05035   0.0000000000
C          C       0.27347   0.70432   0.06192   0.0000000000
C          C       0.37696   0.66747   0.46015   0.0000000000
C          C       0.41829   0.67526   0.47126   0.0000000000
C          C       0.23315   0.68604   0.05761   0.0000000000
C          C       0.31082   0.76927   0.48267   0.0000000000
C          C       0.20661   0.71155   0.46591   0.0000000000
C          C       0.31235   0.81170   0.48785   0.0000000000
C          C       0.16488   0.70599   0.47138   0.0000000000
C          C       0.14769   0.67366   0.06347   0.0000000000
C          C       0.28471   0.50272   0.47695   0.0000000000
C          C       0.47794   0.70953   0.05126   0.0000000000
C          C       0.27885   0.87849   0.06209   0.0000000000
C          C       0.90427   0.62350   0.00260   0.0000000000
C          C       0.88691   0.66429   0.02085   0.0000000000
C          C       0.90989   0.70085   0.03633   0.0000000000
C          C       0.89206   0.74055   0.02897   0.0000000000
C          C       0.91307   0.77888   0.02666   0.0000000000
C          C       0.88469   0.80965   0.02884   0.0000000000
C          C       0.84519   0.79149   0.02207   0.0000000000
C          C       0.69987   0.79266   0.02424   0.0000000000
C          C       0.76850   0.79485   0.00671   0.0000000000
C          C       0.69432   0.71529   0.04163   0.0000000000
C          C       0.71200   0.67566   0.03010   0.0000000000
C          C       0.69104   0.63738   0.02715   0.0000000000
C          C       0.71950   0.60672   0.02061   0.0000000000
C          C       0.75893   0.62502   0.00973   0.0000000000
C          C       0.80771   0.81293   0.01223   0.0000000000
C          C       0.71738   0.75179   0.03312   0.0000000000
C          C       0.95485   0.70012   0.05624   0.0000000000
C          C       0.97334   0.72844   0.16577   0.0000000000
C          C       0.01105   0.73315   0.16805   0.0000000000
C          C       0.03668   0.70822   0.07038   0.0000000000
C          C       0.64931   0.71702   0.05650   0.0000000000
C          C       0.62874   0.68961   0.16337   0.0000000000
C          C       0.58660   0.68654   0.16321   0.0000000000
C          C       0.56310   0.71347   0.06604   0.0000000000
C          C       0.81924   0.53287   0.07333   0.0000000000
C          C       0.81750   0.49049   0.05992   0.0000000000
C          C       0.80894   0.85835   0.01514   0.0000000000
C          C       0.78125   0.87992   0.11769   0.0000000000
C          C       0.77746   0.92214   0.10890   0.0000000000
C          C       0.80400   0.94485   0.00692   0.0000000000
C          C       0.83562   0.62162   0.49603   0.0000000000
C          C       0.87293   0.59775   0.47978   0.0000000000
C          C       0.73107   0.81878   0.00471   0.0000000000
C          C       0.79634   0.60366   0.49841   0.0000000000
C          C       0.98120   0.67453   0.47212   0.0000000000
C          C       0.01921   0.67653   0.48460   0.0000000000
C          C       0.62513   0.74405   0.46981   0.0000000000
C          C       0.58288   0.74376   0.48042   0.0000000000
C          C       0.79350   0.55834   0.48679   0.0000000000
C          C       0.76449   0.53903   0.38348   0.0000000000
C          C       0.76018   0.49676   0.38014   0.0000000000
C          C       0.83565   0.88168   0.42377   0.0000000000
C          C       0.83456   0.92424   0.42537   0.0000000000
C          C       0.78753   0.47186   0.46891   0.0000000000
C          C       0.98639   0.22518   0.06181   0.0000000000
C          C       0.72597   0.17352   0.14169   0.0000000000
C          C       0.68466   0.16426   0.14567   0.0000000000
C          C       0.65640   0.18832   0.05761   0.0000000000
C          C       0.80788   0.14901   0.06792   0.0000000000
C          C       0.83663   0.12623   0.15974   0.0000000000
C          C       0.87384   0.24278   0.14080   0.0000000000
C          C       0.83623   0.08375   0.15896   0.0000000000
C          C       0.91566   0.24935   0.14105   0.0000000000
C          C       0.80597   0.06225   0.07152   0.0000000000
C          C       0.79907   0.34942   0.49051   0.0000000000
C          C       0.82595   0.32221   0.41031   0.0000000000
C          C       0.76710   0.33285   0.08584   0.0000000000
C          C       0.82137   0.28016   0.42631   0.0000000000
C          C       0.76358   0.29085   0.10719   0.0000000000
C          C       0.79108   0.26341   0.03069   0.0000000000
C          C       0.78219   0.21970   0.05151   0.0000000000
C          C       0.74135   0.20560   0.05035   0.0000000000
C          C       0.81620   0.19210   0.06192   0.0000000000
C          C       0.71274   0.22902   0.46015   0.0000000000
C          C       0.67139   0.22127   0.47126   0.0000000000
C          C       0.85652   0.21035   0.05761   0.0000000000
C          C       0.77880   0.12718   0.48267   0.0000000000
C          C       0.88305   0.18481   0.46591   0.0000000000
C          C       0.77723   0.08474   0.48785   0.0000000000
C          C       0.92478   0.19035   0.47138   0.0000000000
C          C       0.94199   0.22266   0.06347   0.0000000000
C          C       0.80511   0.39371   0.47695   0.0000000000
C          C       0.61172   0.18704   0.05126   0.0000000000
C          C       0.81068   0.01793   0.06209   0.0000000000
N          N       0.24460   0.23455   0.01209   0.0000000000
N          N       0.23876   0.14650   0.02282   0.0000000000
N          N       0.33121   0.14201   0.02342   0.0000000000
N          N       0.33730   0.22988   0.01785   0.0000000000
N          N       0.28627   0.90921   0.00205   0.0000000000
N          N       0.56962   0.18659   0.06223   0.0000000000
N          N       0.00700   0.17996   0.06722   0.0000000000
N          N       0.30687   0.46717   0.46761   0.0000000000
N          N       0.84541   0.66182   0.01209   0.0000000000
N          N       0.85132   0.74987   0.02282   0.0000000000
N          N       0.75887   0.75443   0.02342   0.0000000000
N          N       0.75272   0.66656   0.01785   0.0000000000
N          N       0.80131   0.98759   0.00205   0.0000000000
N          N       0.52044   0.71003   0.06223   0.0000000000
N          N       0.07988   0.70465   0.06722   0.0000000000
N          N       0.78298   0.42925   0.46761   0.0000000000
H          H       0.83967   0.47664   0.13492   0.0000000000
H          H       0.15384   0.28197   0.50912   0.0000000000
H          H       0.14427   0.11251   0.52055   0.0000000000
H          H       0.19835   0.05418   0.53524   0.0000000000
H          H       0.42210   0.09479   0.53546   0.0000000000
H          H       0.43176   0.26400   0.52733   0.0000000000
H          H       0.37757   0.32230   0.52460   0.0000000000
H          H       0.26137   0.16835   0.52078   0.0000000000
H          H       0.31483   0.20791   0.51430   0.0000000000
H          H       0.13546   0.14962   0.75176   0.0000000000
H          H       0.06201   0.13830   0.75010   0.0000000000
H          H       0.44412   0.22636   0.75010   0.0000000000
H          H       0.51825   0.23278   0.74362   0.0000000000
H          H       0.24944   0.35022   0.66411   0.0000000000
H          H       0.32793   0.03306   0.70792   0.0000000000
H          H       0.33278   0.95902   0.68688   0.0000000000
H          H       0.21389   0.33095   0.94777   0.0000000000
H          H       0.36260   0.04510   0.97805   0.0000000000
H          H       0.12093   0.24336   0.87983   0.0000000000
H          H       0.04729   0.23819   0.90716   0.0000000000
H          H       0.45096   0.13195   0.87776   0.0000000000
H          H       0.52504   0.13188   0.90223   0.0000000000
H          H       0.34476   0.33911   0.80031   0.0000000000
H          H       0.35264   0.41371   0.79878   0.0000000000
H          H       0.23337   0.02978   0.83690   0.0000000000
H          H       0.23229   0.95521   0.84434   0.0000000000
H          H       0.25161   0.42481   0.63447   0.0000000000
H          H       0.34430   0.54305   0.64006   0.0000000000
H          H       0.35014   0.61713   0.68198   0.0000000000
H          H       0.34350   0.74028   0.72492   0.0000000000
H          H       0.41562   0.75757   0.72449   0.0000000000
H          H       0.23021   0.75451   0.73703   0.0000000000
H          H       0.23499   0.63408   0.72062   0.0000000000
H          H       0.23052   0.82942   0.73218   0.0000000000
H          H       0.16149   0.62176   0.71535   0.0000000000
H          H       0.23946   0.56221   0.82992   0.0000000000
H          H       0.24844   0.63619   0.85205   0.0000000000
H          H       0.36696   0.64290   0.87617   0.0000000000
H          H       0.43954   0.65600   0.90016   0.0000000000
H          H       0.33179   0.75318   0.89855   0.0000000000
H          H       0.21872   0.73622   0.88713   0.0000000000
H          H       0.33551   0.82803   0.91506   0.0000000000
H          H       0.14505   0.72685   0.90047   0.0000000000
H          H       0.93614   0.61434   0.50912   0.0000000000
H          H       0.94584   0.78379   0.52055   0.0000000000
H          H       0.89180   0.84216   0.53524   0.0000000000
H          H       0.66802   0.80172   0.53546   0.0000000000
H          H       0.65823   0.63251   0.52733   0.0000000000
H          H       0.71238   0.57417   0.52460   0.0000000000
H          H       0.82869   0.72804   0.52078   0.0000000000
H          H       0.77521   0.68851   0.51430   0.0000000000
H          H       0.95462   0.74667   0.75176   0.0000000000
H          H       0.02397   0.75669   0.75010   0.0000000000
H          H       0.64590   0.67016   0.75010   0.0000000000
H          H       0.57176   0.66380   0.74362   0.0000000000
H          H       0.84049   0.54616   0.66411   0.0000000000
H          H       0.76224   0.86337   0.70792   0.0000000000
H          H       0.75476   0.93781   0.68688   0.0000000000
H          H       0.87605   0.56540   0.94777   0.0000000000
H          H       0.72756   0.85137   0.97805   0.0000000000
H          H       0.96908   0.65292   0.87983   0.0000000000
H          H       0.03862   0.65679   0.90716   0.0000000000
H          H       0.63914   0.76458   0.87776   0.0000000000
H          H       0.56505   0.76470   0.90223   0.0000000000
H          H       0.74518   0.55733   0.80031   0.0000000000
H          H       0.73725   0.48275   0.79878   0.0000000000
H          H       0.85680   0.86658   0.83690   0.0000000000
H          H       0.85526   0.94155   0.84434   0.0000000000
H          H       0.74548   0.35342   0.64006   0.0000000000
H          H       0.73959   0.27935   0.68198   0.0000000000
H          H       0.74614   0.15619   0.72492   0.0000000000
H          H       0.67401   0.13896   0.72449   0.0000000000
H          H       0.85942   0.14187   0.73703   0.0000000000
H          H       0.85473   0.26231   0.72062   0.0000000000
H          H       0.85905   0.06697   0.73218   0.0000000000
H          H       0.92824   0.27457   0.71535   0.0000000000
H          H       0.85031   0.33419   0.82992   0.0000000000
H          H       0.84127   0.26021   0.85205   0.0000000000
H          H       0.72275   0.25359   0.87617   0.0000000000
H          H       0.65016   0.24054   0.90016   0.0000000000
H          H       0.75784   0.14328   0.89855   0.0000000000
H          H       0.87092   0.16016   0.88713   0.0000000000
H          H       0.75406   0.06844   0.91506   0.0000000000
H          H       0.94460   0.16947   0.90047   0.0000000000
C          C       0.18572   0.27282   0.50260   0.0000000000
C          C       0.20310   0.23205   0.52085   0.0000000000
C          C       0.18016   0.19547   0.53633   0.0000000000
C          C       0.19802   0.15578   0.52897   0.0000000000
C          C       0.17703   0.11744   0.52666   0.0000000000
C          C       0.20544   0.08670   0.52884   0.0000000000
C          C       0.24492   0.10489   0.52207   0.0000000000
C          C       0.39025   0.10382   0.52424   0.0000000000
C          C       0.32162   0.10159   0.50671   0.0000000000
C          C       0.39573   0.18120   0.54163   0.0000000000
C          C       0.37802   0.22082   0.53010   0.0000000000
C          C       0.39895   0.25911   0.52715   0.0000000000
C          C       0.37047   0.28975   0.52061   0.0000000000
C          C       0.33106   0.27142   0.50973   0.0000000000
C          C       0.28242   0.08347   0.51223   0.0000000000
C          C       0.37270   0.14467   0.53312   0.0000000000
C          C       0.13520   0.19617   0.55624   0.0000000000
C          C       0.11672   0.16783   0.66577   0.0000000000
C          C       0.07492   0.16186   0.66805   0.0000000000
C          C       0.04927   0.18676   0.57038   0.0000000000
C          C       0.44074   0.17950   0.55650   0.0000000000
C          C       0.46130   0.20693   0.66337   0.0000000000
C          C       0.50343   0.21003   0.66321   0.0000000000
C          C       0.52696   0.18312   0.56604   0.0000000000
C          C       0.27068   0.36353   0.57333   0.0000000000
C          C       0.27239   0.40590   0.55993   0.0000000000
C          C       0.28122   0.03805   0.51514   0.0000000000
C          C       0.30893   0.01651   0.61769   0.0000000000
C          C       0.31007   0.97467   0.60890   0.0000000000
C          C       0.28355   0.95194   0.50692   0.0000000000
C          C       0.25437   0.27476   0.99603   0.0000000000
C          C       0.21704   0.29860   0.97978   0.0000000000
C          C       0.35906   0.07768   0.50471   0.0000000000
C          C       0.29364   0.29275   0.99841   0.0000000000
C          C       0.10883   0.22174   0.97212   0.0000000000
C          C       0.06671   0.21847   0.98460   0.0000000000
C          C       0.46494   0.15249   0.96981   0.0000000000
C          C       0.50719   0.15281   0.98042   0.0000000000
C          C       0.29644   0.33807   0.98679   0.0000000000
C          C       0.32543   0.35740   0.88348   0.0000000000
C          C       0.32971   0.39968   0.88014   0.0000000000
C          C       0.25453   0.01470   0.92377   0.0000000000
C          C       0.25297   0.97253   0.92537   0.0000000000
C          C       0.30235   0.42456   0.96891   0.0000000000
C          C       0.10330   0.67111   0.56181   0.0000000000
C          C       0.36368   0.72297   0.64169   0.0000000000
C          C       0.40498   0.73226   0.64567   0.0000000000
C          C       0.43326   0.70822   0.55761   0.0000000000
C          C       0.28175   0.74741   0.56792   0.0000000000
C          C       0.25298   0.77018   0.65974   0.0000000000
C          C       0.21586   0.65359   0.64080   0.0000000000
C          C       0.25335   0.81266   0.65896   0.0000000000
C          C       0.17405   0.64699   0.64105   0.0000000000
C          C       0.28359   0.83417   0.57152   0.0000000000
C          C       0.29071   0.54701   0.99051   0.0000000000
C          C       0.26381   0.57420   0.91031   0.0000000000
C          C       0.32267   0.56361   0.58584   0.0000000000
C          C       0.26836   0.61625   0.92631   0.0000000000
C          C       0.32616   0.60561   0.60719   0.0000000000
C          C       0.29864   0.63303   0.53069   0.0000000000
C          C       0.30750   0.67674   0.55151   0.0000000000
C          C       0.34832   0.69088   0.55035   0.0000000000
C          C       0.27347   0.70432   0.56192   0.0000000000
C          C       0.37696   0.66747   0.96015   0.0000000000
C          C       0.41829   0.67526   0.97126   0.0000000000
C          C       0.23315   0.68604   0.55761   0.0000000000
C          C       0.31082   0.76927   0.98267   0.0000000000
C          C       0.20661   0.71155   0.96591   0.0000000000
C          C       0.31235   0.81170   0.98785   0.0000000000
C          C       0.16488   0.70599   0.97138   0.0000000000
C          C       0.14769   0.67366   0.56347   0.0000000000
C          C       0.28471   0.50272   0.97695   0.0000000000
C          C       0.47794   0.70953   0.55126   0.0000000000
C          C       0.27885   0.87849   0.56209   0.0000000000
C          C       0.90427   0.62350   0.50260   0.0000000000
C          C       0.88691   0.66429   0.52085   0.0000000000
C          C       0.90989   0.70085   0.53633   0.0000000000
C          C       0.89206   0.74055   0.52897   0.0000000000
C          C       0.91307   0.77888   0.52666   0.0000000000
C          C       0.88469   0.80965   0.52884   0.0000000000
C          C       0.84519   0.79149   0.52207   0.0000000000
C          C       0.69987   0.79266   0.52424   0.0000000000
C          C       0.76850   0.79485   0.50671   0.0000000000
C          C       0.69432   0.71529   0.54163   0.0000000000
C          C       0.71200   0.67566   0.53010   0.0000000000
C          C       0.69104   0.63737   0.52715   0.0000000000
C          C       0.71950   0.60672   0.52061   0.0000000000
C          C       0.75893   0.62502   0.50973   0.0000000000
C          C       0.80771   0.81293   0.51223   0.0000000000
C          C       0.71738   0.75179   0.53312   0.0000000000
C          C       0.95485   0.70012   0.55624   0.0000000000
C          C       0.97334   0.72844   0.66577   0.0000000000
C          C       0.01105   0.73315   0.66805   0.0000000000
C          C       0.03668   0.70822   0.57038   0.0000000000
C          C       0.64931   0.71702   0.55650   0.0000000000
C          C       0.62874   0.68961   0.66337   0.0000000000
C          C       0.58660   0.68654   0.66321   0.0000000000
C          C       0.56310   0.71347   0.56604   0.0000000000
C          C       0.81924   0.53287   0.57333   0.0000000000
C          C       0.81750   0.49049   0.55993   0.0000000000
C          C       0.80894   0.85835   0.51514   0.0000000000
C          C       0.78125   0.87992   0.61769   0.0000000000
C          C       0.77746   0.92214   0.60890   0.0000000000
C          C       0.80400   0.94485   0.50692   0.0000000000
C          C       0.83562   0.62162   0.99603   0.0000000000
C          C       0.87293   0.59775   0.97978   0.0000000000
C          C       0.73107   0.81878   0.50471   0.0000000000
C          C       0.79634   0.60366   0.99841   0.0000000000
C          C       0.98120   0.67453   0.97212   0.0000000000
C          C       0.01921   0.67653   0.98460   0.0000000000
C          C       0.62513   0.74405   0.96981   0.0000000000
C          C       0.58288   0.74376   0.98042   0.0000000000
C          C       0.79350   0.55834   0.98679   0.0000000000
C          C       0.76449   0.53903   0.88348   0.0000000000
C          C       0.76018   0.49676   0.88014   0.0000000000
C          C       0.83565   0.88168   0.92377   0.0000000000
C          C       0.83456   0.92424   0.92537   0.0000000000
C          C       0.78753   0.47186   0.96891   0.0000000000
C          C       0.98639   0.22518   0.56181   0.0000000000
C          C       0.72597   0.17352   0.64169   0.0000000000
C          C       0.68466   0.16426   0.64567   0.0000000000
C          C       0.65640   0.18831   0.55761   0.0000000000
C          C       0.80788   0.14901   0.56792   0.0000000000
C          C       0.83663   0.12623   0.65974   0.0000000000
C          C       0.87384   0.24278   0.64080   0.0000000000
C          C       0.83623   0.08375   0.65896   0.0000000000
C          C       0.91566   0.24935   0.64105   0.0000000000
C          C       0.80597   0.06225   0.57152   0.0000000000
C          C       0.79907   0.34942   0.99051   0.0000000000
C          C       0.82595   0.32221   0.91031   0.0000000000
C          C       0.76710   0.33285   0.58584   0.0000000000
C          C       0.82137   0.28016   0.92631   0.0000000000
C          C       0.76358   0.29085   0.60719   0.0000000000
C          C       0.79108   0.26341   0.53069   0.0000000000
C          C       0.78219   0.21970   0.55151   0.0000000000
C          C       0.74135   0.20560   0.55035   0.0000000000
C          C       0.81620   0.19210   0.56192   0.0000000000
C          C       0.71273   0.22902   0.96015   0.0000000000
C          C       0.67139   0.22127   0.97126   0.0000000000
C          C       0.85652   0.21035   0.55761   0.0000000000
C          C       0.77879   0.12718   0.98267   0.0000000000
C          C       0.88305   0.18481   0.96591   0.0000000000
C          C       0.77723   0.08474   0.98785   0.0000000000
C          C       0.92478   0.19035   0.97138   0.0000000000
C          C       0.94199   0.22266   0.56347   0.0000000000
C          C       0.80511   0.39371   0.97695   0.0000000000
C          C       0.61172   0.18704   0.55126   0.0000000000
C          C       0.81068   0.01793   0.56209   0.0000000000
N          N       0.24460   0.23455   0.51209   0.0000000000
N          N       0.23876   0.14650   0.52282   0.0000000000
N          N       0.33121   0.14201   0.52342   0.0000000000
N          N       0.33730   0.22988   0.51785   0.0000000000
N          N       0.28627   0.90921   0.50205   0.0000000000
N          N       0.56962   0.18659   0.56223   0.0000000000
N          N       0.00700   0.17996   0.56722   0.0000000000
N          N       0.30687   0.46717   0.96761   0.0000000000
N          N       0.84541   0.66182   0.51209   0.0000000000
N          N       0.85132   0.74987   0.52282   0.0000000000
N          N       0.75887   0.75443   0.52342   0.0000000000
N          N       0.75272   0.66656   0.51785   0.0000000000
N          N       0.80131   0.98759   0.50205   0.0000000000
N          N       0.52044   0.71003   0.56223   0.0000000000
N          N       0.07988   0.70465   0.56722   0.0000000000
N          N       0.78298   0.42925   0.96761   0.0000000000
H          H       0.83967   0.47664   0.63492   0.0000000000
