data_crystal

_cell_length_a    32.96000
_cell_length_b    32.96000
_cell_length_c    7.24000
_cell_angle_alpha 90.00000
_cell_angle_beta  90.00000
_cell_angle_gamma 120.00000

_space_group_name_Hall 'P 1'
_space_group_name_H-M_alt  'P 1'

loop_
_symmetry_equiv_pos_as_xyz
'x,y,z' 

loop_
_atom_site_label
_atom_site_type_symbol
_atom_site_fract_x
_atom_site_fract_y
_atom_site_fract_z
C          C       0.01298   0.55184   0.24962 
C          C       0.44816   0.46114   0.24962 
C          C       0.53886   0.98702   0.24962 
C          C       0.96115   0.51298   0.24937 
C          C       0.48702   0.44817   0.24937 
C          C       0.55183   0.03885   0.24937 
C          C       0.94818   0.46115   0.25003 
C          C       0.53885   0.48703   0.25003 
C          C       0.51297   0.05182   0.25003 
C          C       0.10366   0.57771   0.25006 
C          C       0.42229   0.52595   0.25006 
C          C       0.47405   0.89634   0.25006 
O          O       0.11645   0.62856   0.24965 
O          O       0.37144   0.48789   0.24965 
O          O       0.51211   0.88355   0.24965 
N          N       0.85830   0.43507   0.24974 
N          N       0.56493   0.42323   0.24974 
N          N       0.57677   0.14170   0.24974 
N          N       0.19156   0.60212   0.25006 
N          N       0.39788   0.58944   0.25006 
N          N       0.41056   0.80844   0.25006 
C          C       0.22952   0.58920   0.24995 
C          C       0.41080   0.64032   0.24995 
C          C       0.35968   0.77048   0.24995 
C          C       0.28143   0.62787   0.24988 
C          C       0.37213   0.65356   0.24988 
C          C       0.34644   0.71857   0.24988 
C          C       0.29475   0.67982   0.24995 
C          C       0.32018   0.61493   0.24995 
C          C       0.38507   0.70525   0.24995 
O          O       0.25697   0.69299   0.24994 
O          O       0.30701   0.56398   0.24994 
O          O       0.43602   0.74303   0.24994 
H          H       0.93238   0.52258   0.24869 
H          H       0.47742   0.40980   0.24869 
H          H       0.59020   0.06762   0.24869 
H          H       0.21976   0.55078   0.24992 
H          H       0.44922   0.66898   0.24992 
H          H       0.33102   0.78024   0.24992 
C          C       0.98702   0.44816   0.25038 
C          C       0.55184   0.53886   0.25038 
C          C       0.46114   0.01298   0.25038 
C          C       0.03885   0.48702   0.25063 
C          C       0.51298   0.55183   0.25063 
C          C       0.44817   0.96115   0.25063 
C          C       0.05182   0.53885   0.24997 
C          C       0.46115   0.51297   0.24997 
C          C       0.48703   0.94818   0.24997 
C          C       0.89634   0.42229   0.24994 
C          C       0.57771   0.47405   0.24994 
C          C       0.52595   0.10366   0.24994 
O          O       0.88355   0.37144   0.25035 
O          O       0.62856   0.51211   0.25035 
O          O       0.48789   0.11645   0.25035 
N          N       0.14170   0.56493   0.25027 
N          N       0.43507   0.57677   0.25027 
N          N       0.42323   0.85830   0.25027 
N          N       0.80844   0.39788   0.24995 
N          N       0.60212   0.41056   0.24995 
N          N       0.58944   0.19156   0.24995 
C          C       0.77048   0.41080   0.25006 
C          C       0.58920   0.35968   0.25006 
C          C       0.64032   0.22952   0.25006 
C          C       0.71857   0.37213   0.25012 
C          C       0.62787   0.34644   0.25012 
C          C       0.65356   0.28143   0.25012 
C          C       0.70525   0.32018   0.25006 
C          C       0.67982   0.38507   0.25006 
C          C       0.61493   0.29475   0.25006 
O          O       0.74303   0.30701   0.25006 
O          O       0.69299   0.43602   0.25006 
O          O       0.56398   0.25697   0.25006 
H          H       0.06762   0.47742   0.25132 
H          H       0.52258   0.59020   0.25132 
H          H       0.40980   0.93238   0.25132 
H          H       0.78024   0.44922   0.25009 
H          H       0.55078   0.33102   0.25009 
H          H       0.66898   0.21976   0.25009 
C          C       0.40838   0.43815   0.24962 
C          C       0.56185   0.97023   0.24962 
C          C       0.02977   0.59162   0.24962 
N          N       0.38430   0.38420   0.24962 
N          N       0.61580   0.00010   0.24962 
N          N       0.99990   0.61570   0.24962 
C          C       0.40019   0.35469   0.36085 
C          C       0.64531   0.04550   0.36085 
C          C       0.95450   0.59981   0.36085 
C          C       0.36598   0.30267   0.31837 
C          C       0.69733   0.06331   0.31837 
C          C       0.93669   0.63402   0.31837 
N          N       0.32895   0.30003   0.18088 
N          N       0.69997   0.02892   0.18088 
N          N       0.97108   0.67105   0.18088 
C          C       0.34026   0.35042   0.13839 
C          C       0.64958   0.98984   0.13839 
C          C       0.01016   0.65974   0.13839 
C          C       0.28006   0.25808   0.18088 
C          C       0.74192   0.02198   0.18088 
C          C       0.97802   0.71994   0.18088 
C          C       0.26811   0.20654   0.18088 
C          C       0.79346   0.06157   0.18088 
C          C       0.93843   0.73189   0.18088 
C          C       0.21669   0.16668   0.18088 
C          C       0.83332   0.05001   0.18088 
C          C       0.94999   0.78331   0.18088 
Br         Br      0.63653   0.93752   0.29244 
Br         Br      0.06248   0.69901   0.29244 
Br         Br      0.30099   0.36347   0.29244 
H          H       0.39465   0.44869   0.12410 
H          H       0.55131   0.94596   0.12410 
H          H       0.05404   0.60535   0.12410 
H          H       0.39343   0.44588   0.37890 
H          H       0.55412   0.94755   0.37890 
H          H       0.05245   0.60657   0.37890 
H          H       0.43070   0.36489   0.46040 
H          H       0.63511   0.06581   0.46040 
H          H       0.93419   0.56930   0.46040 
H          H       0.37116   0.27436   0.38647 
H          H       0.72564   0.09680   0.38647 
H          H       0.90320   0.62884   0.38647 
H          H       0.31713   0.35679   0.03884 
H          H       0.64321   0.96034   0.03884 
H          H       0.03966   0.68287   0.03884 
H          H       0.26112   0.26246   0.05672 
H          H       0.73754   0.99866   0.05672 
H          H       0.00134   0.73888   0.05672 
H          H       0.26056   0.25900   0.31016 
H          H       0.74100   0.00156   0.31016 
H          H       0.99844   0.73944   0.31016 
H          H       0.29742   0.19770   0.18088 
H          H       0.80230   0.09972   0.18088 
H          H       0.90028   0.70258   0.18088 
H          H       0.20525   0.13505   0.08628 
H          H       0.86495   0.07020   0.08628 
H          H       0.92980   0.79475   0.08628 
H          H       0.19008   0.16880   0.27548 
H          H       0.83120   0.02128   0.27548 
H          H       0.97872   0.80992   0.27548 
H          H       0.59089   0.56562   0.25038 
H          H       0.43438   0.02527   0.25038 
H          H       0.97473   0.40911   0.25038 
C          C       0.01298   0.55184   0.74962 
C          C       0.44816   0.46114   0.74962 
C          C       0.53886   0.98702   0.74962 
C          C       0.96115   0.51298   0.74937 
C          C       0.48702   0.44817   0.74937 
C          C       0.55183   0.03885   0.74937 
C          C       0.94818   0.46115   0.75003 
C          C       0.53885   0.48703   0.75003 
C          C       0.51297   0.05182   0.75003 
C          C       0.10366   0.57771   0.75006 
C          C       0.42229   0.52595   0.75006 
C          C       0.47405   0.89634   0.75006 
O          O       0.11645   0.62856   0.74965 
O          O       0.37144   0.48789   0.74965 
O          O       0.51211   0.88355   0.74965 
N          N       0.85830   0.43507   0.74974 
N          N       0.56493   0.42323   0.74974 
N          N       0.57677   0.14170   0.74974 
N          N       0.19156   0.60212   0.75006 
N          N       0.39788   0.58944   0.75006 
N          N       0.41056   0.80844   0.75006 
C          C       0.22952   0.58920   0.74995 
C          C       0.41080   0.64032   0.74995 
C          C       0.35968   0.77048   0.74995 
C          C       0.28143   0.62787   0.74988 
C          C       0.37213   0.65356   0.74988 
C          C       0.34644   0.71857   0.74988 
C          C       0.29475   0.67982   0.74995 
C          C       0.32018   0.61493   0.74995 
C          C       0.38507   0.70525   0.74995 
O          O       0.25697   0.69299   0.74994 
O          O       0.30701   0.56398   0.74994 
O          O       0.43602   0.74303   0.74994 
H          H       0.93238   0.52258   0.74869 
H          H       0.47742   0.40980   0.74869 
H          H       0.59020   0.06762   0.74869 
H          H       0.21976   0.55078   0.74992 
H          H       0.44922   0.66898   0.74992 
H          H       0.33102   0.78024   0.74992 
C          C       0.98702   0.44816   0.75038 
C          C       0.55184   0.53886   0.75038 
C          C       0.46114   0.01298   0.75038 
C          C       0.03885   0.48702   0.75064 
C          C       0.51298   0.55183   0.75064 
C          C       0.44817   0.96115   0.75064 
C          C       0.05182   0.53885   0.74997 
C          C       0.46115   0.51297   0.74997 
C          C       0.48703   0.94818   0.74997 
C          C       0.89634   0.42229   0.74994 
C          C       0.57771   0.47405   0.74994 
C          C       0.52595   0.10366   0.74994 
O          O       0.88355   0.37144   0.75035 
O          O       0.62856   0.51211   0.75035 
O          O       0.48789   0.11645   0.75035 
N          N       0.14170   0.56493   0.75027 
N          N       0.43507   0.57677   0.75027 
N          N       0.42323   0.85830   0.75027 
N          N       0.80844   0.39788   0.74995 
N          N       0.60212   0.41056   0.74995 
N          N       0.58944   0.19156   0.74995 
C          C       0.77048   0.41080   0.75006 
C          C       0.58920   0.35968   0.75006 
C          C       0.64032   0.22952   0.75006 
C          C       0.71857   0.37213   0.75013 
C          C       0.62787   0.34644   0.75013 
C          C       0.65356   0.28143   0.75013 
C          C       0.70525   0.32018   0.75006 
C          C       0.67982   0.38507   0.75006 
C          C       0.61493   0.29475   0.75006 
O          O       0.74303   0.30701   0.75006 
O          O       0.69299   0.43602   0.75006 
O          O       0.56398   0.25697   0.75006 
H          H       0.06762   0.47742   0.75132 
H          H       0.52258   0.59020   0.75132 
H          H       0.40980   0.93238   0.75132 
H          H       0.78024   0.44922   0.75009 
H          H       0.55078   0.33102   0.75009 
H          H       0.66898   0.21976   0.75009 
C          C       0.40838   0.43815   0.74962 
C          C       0.56185   0.97023   0.74962 
C          C       0.02977   0.59162   0.74962 
N          N       0.38430   0.38420   0.74962 
N          N       0.61580   0.00010   0.74962 
N          N       0.99990   0.61570   0.74962 
C          C       0.40019   0.35469   0.86085 
C          C       0.64531   0.04550   0.86085 
C          C       0.95450   0.59981   0.86085 
C          C       0.36598   0.30267   0.81837 
C          C       0.69733   0.06331   0.81837 
C          C       0.93669   0.63402   0.81837 
N          N       0.32895   0.30003   0.68088 
N          N       0.69997   0.02892   0.68088 
N          N       0.97108   0.67105   0.68088 
C          C       0.34026   0.35042   0.63839 
C          C       0.64958   0.98984   0.63839 
C          C       0.01016   0.65974   0.63839 
C          C       0.28006   0.25808   0.68088 
C          C       0.74192   0.02198   0.68088 
C          C       0.97802   0.71994   0.68088 
C          C       0.26811   0.20654   0.68088 
C          C       0.79346   0.06157   0.68088 
C          C       0.93843   0.73189   0.68088 
C          C       0.21669   0.16668   0.68088 
C          C       0.83332   0.05001   0.68088 
C          C       0.94999   0.78331   0.68088 
Br         Br      0.63653   0.93752   0.79244 
Br         Br      0.06248   0.69901   0.79244 
Br         Br      0.30099   0.36347   0.79244 
H          H       0.39465   0.44869   0.62410 
H          H       0.55131   0.94596   0.62410 
H          H       0.05404   0.60535   0.62410 
H          H       0.39343   0.44588   0.87890 
H          H       0.55412   0.94755   0.87890 
H          H       0.05245   0.60657   0.87890 
H          H       0.43070   0.36489   0.96040 
H          H       0.63511   0.06581   0.96040 
H          H       0.93419   0.56930   0.96040 
H          H       0.37116   0.27436   0.88647 
H          H       0.72564   0.09680   0.88647 
H          H       0.90320   0.62884   0.88647 
H          H       0.31713   0.35679   0.53884 
H          H       0.64321   0.96034   0.53884 
H          H       0.03966   0.68287   0.53884 
H          H       0.26112   0.26246   0.55673 
H          H       0.73754   0.99866   0.55673 
H          H       0.00134   0.73888   0.55673 
H          H       0.26056   0.25900   0.81016 
H          H       0.74100   0.00156   0.81016 
H          H       0.99844   0.73944   0.81016 
H          H       0.29742   0.19770   0.68088 
H          H       0.80230   0.09972   0.68088 
H          H       0.90028   0.70258   0.68088 
H          H       0.20525   0.13505   0.58628 
H          H       0.86495   0.07020   0.58628 
H          H       0.92980   0.79475   0.58628 
H          H       0.19008   0.16880   0.77548 
H          H       0.83120   0.02128   0.77548 
H          H       0.97872   0.80992   0.77548 
H          H       0.59089   0.56562   0.75038 
H          H       0.43438   0.02527   0.75038 
H          H       0.97473   0.40911   0.75038 
