data_crystal

_cell_length_a    24.68650
_cell_length_b    24.68650
_cell_length_c    7.00040
_cell_angle_alpha 90.00000
_cell_angle_beta  90.00000
_cell_angle_gamma 120.00000

_space_group_name_Hall 'P 1'
_space_group_name_H-M_alt  'P 1'

loop_
_symmetry_equiv_pos_as_xyz
'x,y,z' 

loop_
_atom_site_label
_atom_site_type_symbol
_atom_site_fract_x
_atom_site_fract_y
_atom_site_fract_z
H          H       0.68031   0.60425   0.13825 
H          H       0.39575   0.07606   0.13825 
H          H       0.92394   0.31969   0.13825 
H          H       0.31969   0.39575   0.13825 
H          H       0.60425   0.92394   0.13825 
H          H       0.07606   0.68031   0.13825 
H          H       0.31969   0.39575   0.36175 
H          H       0.60425   0.92394   0.36175 
H          H       0.07606   0.68031   0.36175 
H          H       0.68031   0.60425   0.36175 
H          H       0.39575   0.07606   0.36175 
H          H       0.92394   0.31969   0.36175 
C          C       0.33310   0.72297   0.25000 
C          C       0.27703   0.61013   0.25000 
C          C       0.38987   0.66690   0.25000 
C          C       0.66690   0.27703   0.25000 
C          C       0.72297   0.38987   0.25000 
C          C       0.61013   0.33310   0.25000 
C          C       0.44579   0.66661   0.25000 
C          C       0.33339   0.77918   0.25000 
C          C       0.22082   0.55421   0.25000 
C          C       0.55421   0.33339   0.25000 
C          C       0.66661   0.22082   0.25000 
C          C       0.77918   0.44579   0.25000 
C          C       0.44546   0.61093   0.25000 
C          C       0.38907   0.83453   0.25000 
C          C       0.16547   0.55454   0.25000 
C          C       0.55454   0.38907   0.25000 
C          C       0.61093   0.16547   0.25000 
C          C       0.83453   0.44546   0.25000 
O          O       0.38643   0.49751   0.25000 
O          O       0.50249   0.88892   0.25000 
O          O       0.11108   0.61357   0.25000 
O          O       0.61357   0.50249   0.25000 
O          O       0.49751   0.11108   0.25000 
O          O       0.88892   0.38643   0.25000 
C          C       0.44304   0.49871   0.25000 
C          C       0.50129   0.94433   0.25000 
C          C       0.05567   0.55696   0.25000 
C          C       0.55696   0.50129   0.25000 
C          C       0.49871   0.05567   0.25000 
C          C       0.94433   0.44304   0.25000 
C          C       0.72293   0.33304   0.25000 
C          C       0.66696   0.38989   0.25000 
C          C       0.61011   0.27707   0.25000 
C          C       0.27707   0.66696   0.25000 
C          C       0.33304   0.61011   0.25000 
C          C       0.38989   0.72293   0.25000 
C          C       0.66673   0.44584   0.25000 
C          C       0.55416   0.22089   0.25000 
C          C       0.77911   0.33327   0.25000 
C          C       0.33327   0.55416   0.25000 
C          C       0.44584   0.77911   0.25000 
C          C       0.22089   0.66673   0.25000 
C          C       0.61108   0.44557   0.25000 
C          C       0.55443   0.16551   0.25000 
C          C       0.83449   0.38892   0.25000 
C          C       0.38892   0.55443   0.25000 
C          C       0.44557   0.83449   0.25000 
C          C       0.16551   0.61108   0.25000 
O          O       0.49771   0.38673   0.25000 
O          O       0.61327   0.11098   0.25000 
O          O       0.88902   0.50229   0.25000 
O          O       0.50229   0.61327   0.25000 
O          O       0.38673   0.88902   0.25000 
O          O       0.11098   0.49771   0.25000 
C          C       0.49972   0.44395   0.25000 
C          C       0.55605   0.05577   0.25000 
C          C       0.94423   0.50028   0.25000 
C          C       0.50028   0.55605   0.25000 
C          C       0.44395   0.94423   0.25000 
C          C       0.05577   0.49972   0.25000 
N          N       0.67653   0.62888   0.25000 
N          N       0.37112   0.04765   0.25000 
N          N       0.95235   0.32347   0.25000 
N          N       0.32347   0.37112   0.25000 
N          N       0.62888   0.95235   0.25000 
N          N       0.04765   0.67653   0.25000 
C          C       0.55724   0.55788   0.25000 
C          C       0.44212   0.99936   0.25000 
C          C       0.00064   0.44276   0.25000 
C          C       0.44276   0.44212   0.25000 
C          C       0.55788   0.00064   0.25000 
C          C       0.99936   0.55724   0.25000 
C          C       0.61492   0.62311   0.25000 
C          C       0.37689   0.99181   0.25000 
C          C       0.00819   0.38508   0.25000 
C          C       0.38508   0.37689   0.25000 
C          C       0.62311   0.00819   0.25000 
C          C       0.99181   0.61492   0.25000 
H          H       0.49195   0.71249   0.25000 
H          H       0.28751   0.77946   0.25000 
H          H       0.22054   0.50805   0.25000 
H          H       0.50805   0.28751   0.25000 
H          H       0.71249   0.22054   0.25000 
H          H       0.77946   0.49195   0.25000 
H          H       0.28736   0.50802   0.25000 
H          H       0.49198   0.77934   0.25000 
H          H       0.22066   0.71264   0.25000 
H          H       0.71264   0.49198   0.25000 
H          H       0.50802   0.22066   0.25000 
H          H       0.77934   0.28736   0.25000 
H          H       0.68031   0.60425   0.63826 
H          H       0.39575   0.07606   0.63826 
H          H       0.92394   0.31969   0.63826 
H          H       0.31969   0.39575   0.63826 
H          H       0.60425   0.92394   0.63826 
H          H       0.07606   0.68031   0.63826 
H          H       0.31969   0.39575   0.86175 
H          H       0.60425   0.92394   0.86175 
H          H       0.07606   0.68031   0.86175 
H          H       0.68031   0.60425   0.86175 
H          H       0.39575   0.07606   0.86175 
H          H       0.92394   0.31969   0.86175 
C          C       0.33310   0.72297   0.75000 
C          C       0.27703   0.61013   0.75000 
C          C       0.38987   0.66690   0.75000 
C          C       0.66690   0.27703   0.75000 
C          C       0.72297   0.38987   0.75000 
C          C       0.61013   0.33310   0.75000 
C          C       0.44579   0.66661   0.75000 
C          C       0.33339   0.77918   0.75000 
C          C       0.22082   0.55421   0.75000 
C          C       0.55421   0.33339   0.75000 
C          C       0.66661   0.22082   0.75000 
C          C       0.77918   0.44579   0.75000 
C          C       0.44546   0.61093   0.75000 
C          C       0.38907   0.83453   0.75000 
C          C       0.16547   0.55454   0.75000 
C          C       0.55454   0.38907   0.75000 
C          C       0.61093   0.16547   0.75000 
C          C       0.83453   0.44546   0.75000 
O          O       0.38643   0.49751   0.75000 
O          O       0.50249   0.88892   0.75000 
O          O       0.11108   0.61357   0.75000 
O          O       0.61357   0.50249   0.75000 
O          O       0.49751   0.11108   0.75000 
O          O       0.88892   0.38643   0.75000 
C          C       0.44304   0.49871   0.75000 
C          C       0.50129   0.94433   0.75000 
C          C       0.05567   0.55696   0.75000 
C          C       0.55696   0.50129   0.75000 
C          C       0.49871   0.05567   0.75000 
C          C       0.94433   0.44304   0.75000 
C          C       0.72293   0.33304   0.75000 
C          C       0.66696   0.38989   0.75000 
C          C       0.61011   0.27707   0.75000 
C          C       0.27707   0.66696   0.75000 
C          C       0.33304   0.61011   0.75000 
C          C       0.38989   0.72293   0.75000 
C          C       0.66673   0.44584   0.75000 
C          C       0.55416   0.22089   0.75000 
C          C       0.77911   0.33327   0.75000 
C          C       0.33327   0.55416   0.75000 
C          C       0.44584   0.77911   0.75000 
C          C       0.22089   0.66673   0.75000 
C          C       0.61108   0.44557   0.75000 
C          C       0.55443   0.16551   0.75000 
C          C       0.83449   0.38892   0.75000 
C          C       0.38892   0.55443   0.75000 
C          C       0.44557   0.83449   0.75000 
C          C       0.16551   0.61108   0.75000 
O          O       0.49771   0.38673   0.75000 
O          O       0.61327   0.11098   0.75000 
O          O       0.88902   0.50229   0.75000 
O          O       0.50229   0.61327   0.75000 
O          O       0.38673   0.88902   0.75000 
O          O       0.11098   0.49771   0.75000 
C          C       0.49972   0.44395   0.75000 
C          C       0.55605   0.05577   0.75000 
C          C       0.94423   0.50028   0.75000 
C          C       0.50028   0.55605   0.75000 
C          C       0.44395   0.94423   0.75000 
C          C       0.05577   0.49972   0.75000 
N          N       0.67653   0.62888   0.75000 
N          N       0.37112   0.04765   0.75000 
N          N       0.95235   0.32347   0.75000 
N          N       0.32347   0.37112   0.75000 
N          N       0.62888   0.95235   0.75000 
N          N       0.04765   0.67653   0.75000 
C          C       0.55724   0.55788   0.75000 
C          C       0.44212   0.99936   0.75000 
C          C       0.00064   0.44276   0.75000 
C          C       0.44276   0.44212   0.75000 
C          C       0.55788   0.00064   0.75000 
C          C       0.99936   0.55724   0.75000 
C          C       0.61492   0.62311   0.75000 
C          C       0.37689   0.99181   0.75000 
C          C       0.00819   0.38508   0.75000 
C          C       0.38508   0.37689   0.75000 
C          C       0.62311   0.00819   0.75000 
C          C       0.99181   0.61492   0.75000 
H          H       0.49195   0.71249   0.75000 
H          H       0.28751   0.77946   0.75000 
H          H       0.22054   0.50805   0.75000 
H          H       0.50805   0.28751   0.75000 
H          H       0.71249   0.22054   0.75000 
H          H       0.77946   0.49195   0.75000 
H          H       0.28736   0.50802   0.75000 
H          H       0.49198   0.77934   0.75000 
H          H       0.22066   0.71264   0.75000 
H          H       0.71264   0.49198   0.75000 
H          H       0.50802   0.22066   0.75000 
H          H       0.77934   0.28736   0.75000 
