data_crystal
 
_cell_length_a    43.82000
_cell_length_b    44.57000
_cell_length_c    6.96000
_cell_angle_alpha 89.79000
_cell_angle_beta  89.53000
_cell_angle_gamma 122.76000
 
_symmetry_space_group_name_Hall 'P 1'
_symmetry_space_group_name_H-M  'P 1'
 
loop_
_symmetry_equiv_pos_as_xyz
 'x,y,z' 
 
loop_
_atom_site_label
_atom_site_type_symbol
_atom_site_fract_x
_atom_site_fract_y
_atom_site_fract_z
_atom_site_charge
N          N       0.47822   0.44153   0.25000   0.0000000000
C          C       0.51432   0.46933   0.25000   0.0000000000
C          C       0.54376   0.46256   0.25000   0.0000000000
S          S       0.53744   0.42101   0.25000   0.0000000000
C          C       0.51747   0.50174   0.25000   0.0000000000
C          C       0.45834   0.45970   0.25000   0.0000000000
O          O       0.42581   0.44320   0.25000   0.0000000000
C          C       0.57845   0.48875   0.25000   0.0000000000
C          C       0.60049   0.47518   0.25000   0.0000000000
C          C       0.58188   0.43912   0.25000   0.0000000000
B          B       0.59987   0.41656   0.25000   0.0000000000
O          O       0.63787   0.43160   0.25000   0.0000000000
O          O       0.58032   0.37827   0.25000   0.0000000000
C          C       0.63990   0.40125   0.25000   0.0000000000
C          C       0.60763   0.37121   0.25000   0.0000000000
C          C       0.60280   0.33675   0.25000   0.0000000000
C          C       0.67072   0.40023   0.25000   0.0000000000
C          C       0.66893   0.36701   0.25000   0.0000000000
C          C       0.63494   0.33539   0.25000   0.0000000000
H          H       0.42478   0.68696   0.25000   0.0000000000
H          H       0.49348   0.86341   0.25000   0.0000000000
H          H       0.06807   0.58547   0.25000   0.0000000000
H          H       0.27132   0.69699   0.25000   0.0000000000
N          N       0.55847   0.03669   0.25000   0.0000000000
C          C       0.53067   0.04499   0.25000   0.0000000000
C          C       0.53744   0.08121   0.25000   0.0000000000
S          S       0.57899   0.11643   0.25000   0.0000000000
C          C       0.49826   0.01573   0.25000   0.0000000000
C          C       0.54030   0.99864   0.25000   0.0000000000
O          O       0.55680   0.98261   0.25000   0.0000000000
C          C       0.51125   0.08970   0.25000   0.0000000000
C          C       0.52482   0.12531   0.25000   0.0000000000
C          C       0.56088   0.14275   0.25000   0.0000000000
B          B       0.58344   0.18331   0.25000   0.0000000000
O          O       0.56840   0.20627   0.25000   0.0000000000
O          O       0.62173   0.20205   0.25000   0.0000000000
C          C       0.59875   0.23865   0.25000   0.0000000000
C          C       0.62879   0.23642   0.25000   0.0000000000
C          C       0.66325   0.26604   0.25000   0.0000000000
C          C       0.59977   0.27048   0.25000   0.0000000000
C          C       0.63299   0.30192   0.25000   0.0000000000
C          C       0.66461   0.29954   0.25000   0.0000000000
H          H       0.31304   0.73783   0.25000   0.0000000000
H          H       0.13659   0.63008   0.25000   0.0000000000
H          H       0.41453   0.48260   0.25000   0.0000000000
H          H       0.30301   0.57433   0.25000   0.0000000000
C          C       0.40260   0.93780   0.25000   0.0000000000
C          C       0.37678   0.89805   0.25000   0.0000000000
C          C       0.33809   0.88858   0.25000   0.0000000000
C          C       0.31032   0.85416   0.18917   0.0000000000
C          C       0.27407   0.83887   0.24929   0.0000000000
C          C       0.24305   0.80099   0.25001   0.0000000000
C          C       0.37013   0.86026   0.25000   0.0000000000
H          H       0.39252   0.94777   0.13060   0.0000000000
H          H       0.39032   0.94214   0.38173   0.0000000000
H          H       0.37678   0.89805   0.41134   0.0000000000
H          H       0.24666   0.78547   0.36777   0.0000000000
H          H       0.24168   0.78823   0.10775   0.0000000000
H          H       0.21773   0.80150   0.27444   0.0000000000
N          N       0.96310   0.52143   0.25014   0.0000000000
C          C       0.95501   0.48609   0.24998   0.0000000000
C          C       0.91899   0.45636   0.24999   0.0000000000
S          S       0.88616   0.45960   0.24914   0.0000000000
C          C       0.98446   0.48256   0.25000   0.0000000000
C          C       0.00130   0.54164   0.25000   0.0000000000
O          O       0.01739   0.57419   0.25000   0.0000000000
C          C       0.91030   0.42155   0.25000   0.0000000000
C          C       0.87463   0.39940   0.25000   0.0000000000
C          C       0.85711   0.41803   0.24999   0.0000000000
B          B       0.81677   0.40019   0.25000   0.0000000000
O          O       0.79373   0.36213   0.25000   0.0000000000
O          O       0.79795   0.41968   0.25000   0.0000000000
C          C       0.76135   0.36010   0.25000   0.0000000000
C          C       0.76358   0.39237   0.25000   0.0000000000
C          C       0.73396   0.39720   0.25000   0.0000000000
C          C       0.72952   0.32928   0.25000   0.0000000000
C          C       0.69808   0.33107   0.25000   0.0000000000
C          C       0.70046   0.36506   0.25000   0.0000000000
H          H       0.26217   0.57522   0.25000   0.0000000000
H          H       0.36992   0.50652   0.25000   0.0000000000
H          H       0.51740   0.93193   0.25000   0.0000000000
H          H       0.42567   0.72868   0.25000   0.0000000000
C          C       0.06220   0.46479   0.25000   0.0000000000
C          C       0.10195   0.47874   0.25000   0.0000000000
C          C       0.11142   0.44951   0.25000   0.0000000000
C          C       0.15134   0.46437   0.25000   0.0000000000
C          C       0.16118   0.43541   0.25000   0.0000000000
C          C       0.19894   0.44199   0.25000   0.0000000000
C          C       0.13974   0.50987   0.25000   0.0000000000
H          H       0.05222   0.44472   0.13053   0.0000000000
H          H       0.05786   0.44817   0.38173   0.0000000000
H          H       0.10195   0.47874   0.41134   0.0000000000
H          H       0.21453   0.46119   0.36777   0.0000000000
H          H       0.21177   0.45345   0.10775   0.0000000000
H          H       0.19848   0.41619   0.27448   0.0000000000
N          N       0.52178   0.55847   0.25000   0.0000000000
C          C       0.48575   0.53086   0.25003   0.0000000000
C          C       0.45634   0.53738   0.24994   0.0000000000
S          S       0.45821   0.57246   0.24398   0.0000000000
C          C       0.48253   0.49826   0.25000   0.0000000000
C          C       0.54146   0.54027   0.25000   0.0000000000
O          O       0.57419   0.55680   0.25000   0.0000000000
C          C       0.42155   0.51125   0.25000   0.0000000000
C          C       0.39951   0.52482   0.25000   0.0000000000
C          C       0.41812   0.56088   0.25000   0.0000000000
B          B       0.40013   0.58344   0.25000   0.0000000000
O          O       0.36210   0.56850   0.25000   0.0000000000
O          O       0.41962   0.62176   0.25000   0.0000000000
C          C       0.36005   0.59864   0.25000   0.0000000000
C          C       0.39254   0.62887   0.25000   0.0000000000
C          C       0.39717   0.66318   0.25000   0.0000000000
C          C       0.32920   0.59972   0.25000   0.0000000000
C          C       0.33107   0.63299   0.25000   0.0000000000
C          C       0.36506   0.66461   0.25000   0.0000000000
H          H       0.57522   0.31304   0.25000   0.0000000000
H          H       0.50659   0.13657   0.25000   0.0000000000
H          H       0.93171   0.41448   0.25000   0.0000000000
H          H       0.72887   0.30326   0.25000   0.0000000000
C          C       0.46479   0.40260   0.25000   0.0000000000
C          C       0.47874   0.37678   0.25000   0.0000000000
C          C       0.44809   0.34151   0.25689   0.0000000000
C          C       0.44286   0.27834   0.23869   0.0000000000
C          C       0.42941   0.23479   0.26761   0.0000000000
C          C       0.50987   0.37013   0.25000   0.0000000000
C          C       0.50059   0.33149   0.25000   0.0000000000
H          H       0.44472   0.39250   0.13053   0.0000000000
H          H       0.44817   0.39032   0.38173   0.0000000000
N          N       0.44153   0.96331   0.25000   0.0000000000
C          C       0.46933   0.95501   0.25000   0.0000000000
C          C       0.46256   0.91879   0.25000   0.0000000000
S          S       0.42101   0.88357   0.25000   0.0000000000
C          C       0.50174   0.98427   0.25000   0.0000000000
C          C       0.45970   0.00136   0.25000   0.0000000000
O          O       0.44320   0.01739   0.25000   0.0000000000
C          C       0.48875   0.91030   0.25000   0.0000000000
C          C       0.47518   0.87469   0.25000   0.0000000000
C          C       0.43912   0.85725   0.25000   0.0000000000
B          B       0.41656   0.81669   0.25000   0.0000000000
O          O       0.43160   0.79373   0.25000   0.0000000000
O          O       0.37827   0.79795   0.25000   0.0000000000
C          C       0.40134   0.76141   0.25000   0.0000000000
C          C       0.37112   0.76361   0.25004   0.0000000000
C          C       0.33684   0.73395   0.25000   0.0000000000
C          C       0.40023   0.72952   0.25000   0.0000000000
C          C       0.36702   0.69809   0.25000   0.0000000000
C          C       0.33539   0.70046   0.25000   0.0000000000
H          H       0.68696   0.26217   0.25000   0.0000000000
H          H       0.86341   0.36992   0.25000   0.0000000000
H          H       0.58547   0.51740   0.25000   0.0000000000
H          H       0.69699   0.42567   0.25000   0.0000000000
C          C       0.59739   0.06204   0.24956   0.0000000000
C          C       0.62390   0.10208   0.25090   0.0000000000
C          C       0.66194   0.11108   0.25000   0.0000000000
C          C       0.72596   0.16125   0.25014   0.0000000000
C          C       0.75704   0.19897   0.25019   0.0000000000
C          C       0.63554   0.14237   0.25003   0.0000000000
C          C       0.66860   0.16962   0.25069   0.0000000000
H          H       0.60750   0.05222   0.13053   0.0000000000
H          H       0.60968   0.05786   0.38173   0.0000000000
H          H       0.62315   0.10216   0.41176   0.0000000000
H          H       0.75343   0.21461   0.36767   0.0000000000
H          H       0.75833   0.21178   0.10785   0.0000000000
H          H       0.78228   0.19848   0.27448   0.0000000000
N          N       0.03669   0.47822   0.25000   0.0000000000
C          C       0.04499   0.51432   0.25000   0.0000000000
C          C       0.08121   0.54376   0.25000   0.0000000000
S          S       0.11643   0.53744   0.25000   0.0000000000
C          C       0.01573   0.51747   0.25000   0.0000000000
C          C       0.99864   0.45834   0.25000   0.0000000000
O          O       0.98261   0.42581   0.25000   0.0000000000
C          C       0.08970   0.57845   0.25000   0.0000000000
C          C       0.12531   0.60049   0.25000   0.0000000000
C          C       0.14275   0.58188   0.25000   0.0000000000
B          B       0.18331   0.59987   0.25000   0.0000000000
O          O       0.20627   0.63787   0.25000   0.0000000000
O          O       0.20205   0.58032   0.25000   0.0000000000
C          C       0.23865   0.63990   0.25000   0.0000000000
C          C       0.23642   0.60763   0.25000   0.0000000000
C          C       0.26604   0.60280   0.25000   0.0000000000
C          C       0.27048   0.67072   0.25000   0.0000000000
C          C       0.30192   0.66893   0.25000   0.0000000000
C          C       0.29954   0.63494   0.25000   0.0000000000
H          H       0.73783   0.42478   0.25000   0.0000000000
H          H       0.63008   0.49348   0.25000   0.0000000000
H          H       0.48260   0.06807   0.25000   0.0000000000
H          H       0.57433   0.27132   0.25000   0.0000000000
C          C       0.93780   0.53521   0.25000   0.0000000000
C          C       0.89805   0.52126   0.25000   0.0000000000
C          C       0.88920   0.55078   0.25080   0.0000000000
C          C       0.83232   0.54324   0.24919   0.0000000000
C          C       0.80102   0.55795   0.24991   0.0000000000
C          C       0.86026   0.49013   0.25000   0.0000000000
C          C       0.82477   0.48832   0.24901   0.0000000000
H          H       0.94778   0.55528   0.13053   0.0000000000
H          H       0.94214   0.55183   0.38173   0.0000000000
H          H       0.89805   0.52126   0.41134   0.0000000000
C          C       0.54899   0.59810   0.24797   0.0000000000
H          H       0.56678   0.60627   0.11198   0.0000000000
H          H       0.56694   0.60591   0.38030   0.0000000000
C          C       0.52758   0.61625   0.24756   0.0000000000
H          H       0.52668   0.61535   0.08431   0.0000000000
C          C       0.55555   0.65611   0.24662   0.0000000000
C          C       0.58024   0.72738   0.24311   0.0000000000
C          C       0.58099   0.76233   0.24227   0.0000000000
H          H       0.59529   0.77825   0.10614   0.0000000000
H          H       0.59619   0.77877   0.37335   0.0000000000
H          H       0.55204   0.75587   0.24668   0.0000000000
C          C       0.50239   0.63049   0.24934   0.0000000000
H          H       0.48275   0.61613   0.37485   0.0000000000
H          H       0.48453   0.62076   0.11666   0.0000000000
C          C       0.50898   0.66811   0.24814   0.0000000000
C          C       0.34044   0.81463   0.24814   0.0000000000
H          H       0.38477   0.86232   0.37680   0.0000000000
H          H       0.36916   0.86043   0.09646   0.0000000000
H          H       0.33491   0.80456   0.39251   0.0000000000
H          H       0.35229   0.80280   0.16896   0.0000000000
H          H       0.31568   0.80818   0.18178   0.0000000000
H          H       0.27092   0.85062   0.37553   0.0000000000
H          H       0.27228   0.84809   0.11142   0.0000000000
H          H       0.33363   0.89957   0.12447   0.0000000000
H          H       0.33300   0.89925   0.37481   0.0000000000
H          H       0.10005   0.43357   0.12447   0.0000000000
H          H       0.10036   0.43435   0.38006   0.0000000000
H          H       0.14805   0.41944   0.37553   0.0000000000
H          H       0.15342   0.42576   0.10676   0.0000000000
C          C       0.18236   0.53792   0.22303   0.0000000000
H          H       0.14300   0.51392   0.40100   0.0000000000
H          H       0.13576   0.52548   0.14299   0.0000000000
H          H       0.19529   0.54311   0.35948   0.0000000000
H          H       0.19522   0.55235   0.10665   0.0000000000
H          H       0.18576   0.51857   0.12958   0.0000000000
H          H       0.16271   0.48029   0.37592   0.0000000000
H          H       0.16221   0.47925   0.11905   0.0000000000
C          C       0.58806   0.69476   0.25122   0.0000000000
H          H       0.54050   0.66114   0.35071   0.0000000000
H          H       0.56803   0.65236   0.12490   0.0000000000
H          H       0.60516   0.69829   0.13135   0.0000000000
H          H       0.59963   0.69703   0.38979   0.0000000000
H          H       0.59164   0.73713   0.11941   0.0000000000
H          H       0.58778   0.73227   0.39096   0.0000000000
H          H       0.52733   0.68356   0.13338   0.0000000000
H          H       0.52001   0.68120   0.38300   0.0000000000
H          H       0.48374   0.66614   0.22810   0.0000000000
C          C       0.42422   0.29726   0.30190   0.0000000000
H          H       0.48878   0.32187   0.12159   0.0000000000
H          H       0.48982   0.31832   0.39531   0.0000000000
H          H       0.52513   0.33170   0.24408   0.0000000000
H          H       0.52557   0.38259   0.37553   0.0000000000
H          H       0.52318   0.38069   0.11427   0.0000000000
C          C       0.70228   0.12376   0.30667   0.0000000000
H          H       0.67032   0.12987   0.13235   0.0000000000
H          H       0.65274   0.08860   0.34087   0.0000000000
H          H       0.71026   0.10806   0.23222   0.0000000000
H          H       0.70410   0.12034   0.45751   0.0000000000
H          H       0.72916   0.15617   0.10363   0.0000000000
H          H       0.71632   0.16738   0.37367   0.0000000000
H          H       0.62033   0.14433   0.38597   0.0000000000
H          H       0.62140   0.14403   0.11084   0.0000000000
H          H       0.68013   0.16774   0.37916   0.0000000000
H          H       0.67060   0.19418   0.24357   0.0000000000
H          H       0.68264   0.16873   0.12713   0.0000000000
H          H       0.85538   0.47465   0.37897   0.0000000000
H          H       0.85660   0.47660   0.11617   0.0000000000
H          H       0.82608   0.50127   0.38829   0.0000000000
H          H       0.80421   0.47504   0.24308   0.0000000000
H          H       0.82928   0.50950   0.09146   0.0000000000
C          C       0.87305   0.57516   0.23269   0.0000000000
H          H       0.90880   0.57139   0.15714   0.0000000000
H          H       0.88820   0.55460   0.40263   0.0000000000
H          H       0.31038   0.85516   0.03553   0.0000000000
H          H       0.31750   0.83728   0.25719   0.0000000000
H          H       0.88686   0.59534   0.33891   0.0000000000
H          H       0.87674   0.58060   0.08151   0.0000000000
H          H       0.78186   0.53127   0.29844   0.0000000000
H          H       0.79442   0.56142   0.10729   0.0000000000
H          H       0.80009   0.57640   0.34384   0.0000000000
H          H       0.82869   0.52891   0.37996   0.0000000000
H          H       0.82655   0.52673   0.12618   0.0000000000
H          H       0.43097   0.34720   0.33791   0.0000000000
H          H       0.45889   0.33633   0.13208   0.0000000000
H          H       0.50094   0.40401   0.23965   0.0000000000
H          H       0.41923   0.29323   0.45345   0.0000000000
H          H       0.39992   0.28604   0.21995   0.0000000000
H          H       0.44621   0.28269   0.08660   0.0000000000
H          H       0.46400   0.28954   0.34272   0.0000000000
H          H       0.40756   0.21850   0.17239   0.0000000000
H          H       0.42054   0.22653   0.41288   0.0000000000
H          H       0.45171   0.23204   0.23571   0.0000000000
N          N       0.47822   0.44153   0.75000   0.0000000000
C          C       0.51432   0.46933   0.75000   0.0000000000
C          C       0.54376   0.46256   0.75000   0.0000000000
S          S       0.53744   0.42101   0.75000   0.0000000000
C          C       0.51747   0.50174   0.75000   0.0000000000
C          C       0.45834   0.45970   0.75000   0.0000000000
O          O       0.42581   0.44320   0.75000   0.0000000000
C          C       0.57845   0.48875   0.75000   0.0000000000
C          C       0.60049   0.47518   0.75000   0.0000000000
C          C       0.58188   0.43912   0.75000   0.0000000000
B          B       0.59987   0.41656   0.75000   0.0000000000
O          O       0.63787   0.43160   0.75000   0.0000000000
O          O       0.58032   0.37827   0.75000   0.0000000000
C          C       0.63990   0.40125   0.75000   0.0000000000
C          C       0.60763   0.37121   0.75000   0.0000000000
C          C       0.60280   0.33675   0.75000   0.0000000000
C          C       0.67072   0.40023   0.75000   0.0000000000
C          C       0.66893   0.36701   0.75000   0.0000000000
C          C       0.63494   0.33539   0.75000   0.0000000000
H          H       0.42478   0.68696   0.75000   0.0000000000
H          H       0.49348   0.86341   0.75000   0.0000000000
H          H       0.06807   0.58547   0.75000   0.0000000000
H          H       0.27132   0.69699   0.75000   0.0000000000
N          N       0.55847   0.03669   0.75000   0.0000000000
C          C       0.53067   0.04499   0.75000   0.0000000000
C          C       0.53744   0.08121   0.75000   0.0000000000
S          S       0.57899   0.11643   0.75000   0.0000000000
C          C       0.49826   0.01573   0.75000   0.0000000000
C          C       0.54030   0.99864   0.75000   0.0000000000
O          O       0.55680   0.98261   0.75000   0.0000000000
C          C       0.51125   0.08970   0.75000   0.0000000000
C          C       0.52482   0.12531   0.75000   0.0000000000
C          C       0.56088   0.14275   0.75000   0.0000000000
B          B       0.58344   0.18331   0.75000   0.0000000000
O          O       0.56840   0.20627   0.75000   0.0000000000
O          O       0.62173   0.20205   0.75000   0.0000000000
C          C       0.59875   0.23865   0.75000   0.0000000000
C          C       0.62879   0.23642   0.75000   0.0000000000
C          C       0.66325   0.26604   0.75000   0.0000000000
C          C       0.59977   0.27048   0.75000   0.0000000000
C          C       0.63299   0.30192   0.75000   0.0000000000
C          C       0.66461   0.29954   0.75000   0.0000000000
H          H       0.31304   0.73783   0.75000   0.0000000000
H          H       0.13659   0.63008   0.75000   0.0000000000
H          H       0.41453   0.48260   0.75000   0.0000000000
H          H       0.30301   0.57433   0.75000   0.0000000000
C          C       0.40260   0.93780   0.75000   0.0000000000
C          C       0.37678   0.89805   0.75000   0.0000000000
C          C       0.33809   0.88858   0.75000   0.0000000000
C          C       0.31032   0.85416   0.68917   0.0000000000
C          C       0.27407   0.83887   0.74929   0.0000000000
C          C       0.24305   0.80099   0.75001   0.0000000000
C          C       0.37013   0.86026   0.75000   0.0000000000
H          H       0.39252   0.94777   0.63060   0.0000000000
H          H       0.39032   0.94214   0.88173   0.0000000000
H          H       0.37678   0.89805   0.91134   0.0000000000
H          H       0.24666   0.78547   0.86777   0.0000000000
H          H       0.24168   0.78823   0.60775   0.0000000000
H          H       0.21773   0.80150   0.77444   0.0000000000
N          N       0.96310   0.52143   0.75014   0.0000000000
C          C       0.95501   0.48609   0.74998   0.0000000000
C          C       0.91899   0.45636   0.74999   0.0000000000
S          S       0.88616   0.45960   0.74914   0.0000000000
C          C       0.98446   0.48256   0.75000   0.0000000000
C          C       0.00130   0.54164   0.75000   0.0000000000
O          O       0.01739   0.57419   0.75000   0.0000000000
C          C       0.91030   0.42155   0.75000   0.0000000000
C          C       0.87463   0.39940   0.75000   0.0000000000
C          C       0.85711   0.41803   0.74999   0.0000000000
B          B       0.81677   0.40019   0.75000   0.0000000000
O          O       0.79373   0.36213   0.75000   0.0000000000
O          O       0.79795   0.41968   0.75000   0.0000000000
C          C       0.76135   0.36010   0.75000   0.0000000000
C          C       0.76358   0.39237   0.75000   0.0000000000
C          C       0.73396   0.39720   0.75000   0.0000000000
C          C       0.72952   0.32928   0.75000   0.0000000000
C          C       0.69808   0.33107   0.75000   0.0000000000
C          C       0.70046   0.36506   0.75000   0.0000000000
H          H       0.26217   0.57522   0.75000   0.0000000000
H          H       0.36992   0.50652   0.75000   0.0000000000
H          H       0.51740   0.93193   0.75000   0.0000000000
H          H       0.42567   0.72868   0.75000   0.0000000000
C          C       0.06220   0.46479   0.75000   0.0000000000
C          C       0.10195   0.47874   0.75000   0.0000000000
C          C       0.11142   0.44951   0.75000   0.0000000000
C          C       0.15134   0.46437   0.75000   0.0000000000
C          C       0.16118   0.43541   0.75000   0.0000000000
C          C       0.19894   0.44199   0.75000   0.0000000000
C          C       0.13974   0.50987   0.75000   0.0000000000
H          H       0.05222   0.44472   0.63053   0.0000000000
H          H       0.05786   0.44817   0.88173   0.0000000000
H          H       0.10195   0.47874   0.91134   0.0000000000
H          H       0.21453   0.46119   0.86777   0.0000000000
H          H       0.21177   0.45345   0.60775   0.0000000000
H          H       0.19848   0.41619   0.77448   0.0000000000
N          N       0.52178   0.55847   0.75000   0.0000000000
C          C       0.48575   0.53086   0.75003   0.0000000000
C          C       0.45634   0.53738   0.74994   0.0000000000
S          S       0.45821   0.57246   0.74398   0.0000000000
C          C       0.48253   0.49826   0.75000   0.0000000000
C          C       0.54146   0.54027   0.75000   0.0000000000
O          O       0.57419   0.55680   0.75000   0.0000000000
C          C       0.42155   0.51125   0.75000   0.0000000000
C          C       0.39951   0.52482   0.75000   0.0000000000
C          C       0.41812   0.56088   0.75000   0.0000000000
B          B       0.40013   0.58344   0.75000   0.0000000000
O          O       0.36210   0.56850   0.75000   0.0000000000
O          O       0.41962   0.62176   0.75000   0.0000000000
C          C       0.36005   0.59864   0.75000   0.0000000000
C          C       0.39254   0.62887   0.75000   0.0000000000
C          C       0.39717   0.66318   0.75000   0.0000000000
C          C       0.32920   0.59972   0.75000   0.0000000000
C          C       0.33107   0.63299   0.75000   0.0000000000
C          C       0.36506   0.66461   0.75000   0.0000000000
H          H       0.57522   0.31304   0.75000   0.0000000000
H          H       0.50659   0.13657   0.75000   0.0000000000
H          H       0.93171   0.41448   0.75000   0.0000000000
H          H       0.72887   0.30326   0.75000   0.0000000000
C          C       0.46479   0.40260   0.75000   0.0000000000
C          C       0.47874   0.37678   0.75000   0.0000000000
C          C       0.44809   0.34151   0.75689   0.0000000000
C          C       0.44286   0.27834   0.73869   0.0000000000
C          C       0.42941   0.23479   0.76761   0.0000000000
C          C       0.50987   0.37013   0.75000   0.0000000000
C          C       0.50059   0.33149   0.75000   0.0000000000
H          H       0.44472   0.39250   0.63053   0.0000000000
H          H       0.44817   0.39032   0.88173   0.0000000000
N          N       0.44153   0.96331   0.75000   0.0000000000
C          C       0.46933   0.95501   0.75000   0.0000000000
C          C       0.46256   0.91879   0.75000   0.0000000000
S          S       0.42101   0.88357   0.75000   0.0000000000
C          C       0.50174   0.98427   0.75000   0.0000000000
C          C       0.45970   0.00136   0.75000   0.0000000000
O          O       0.44320   0.01739   0.75000   0.0000000000
C          C       0.48875   0.91030   0.75000   0.0000000000
C          C       0.47518   0.87469   0.75000   0.0000000000
C          C       0.43912   0.85725   0.75000   0.0000000000
B          B       0.41656   0.81669   0.75000   0.0000000000
O          O       0.43160   0.79373   0.75000   0.0000000000
O          O       0.37827   0.79795   0.75000   0.0000000000
C          C       0.40134   0.76141   0.75000   0.0000000000
C          C       0.37112   0.76361   0.75004   0.0000000000
C          C       0.33684   0.73395   0.75000   0.0000000000
C          C       0.40023   0.72952   0.75000   0.0000000000
C          C       0.36702   0.69809   0.75000   0.0000000000
C          C       0.33539   0.70046   0.75000   0.0000000000
H          H       0.68696   0.26217   0.75000   0.0000000000
H          H       0.86341   0.36992   0.75000   0.0000000000
H          H       0.58547   0.51740   0.75000   0.0000000000
H          H       0.69699   0.42567   0.75000   0.0000000000
C          C       0.59739   0.06204   0.74956   0.0000000000
C          C       0.62390   0.10208   0.75090   0.0000000000
C          C       0.66194   0.11108   0.75000   0.0000000000
C          C       0.72596   0.16125   0.75014   0.0000000000
C          C       0.75704   0.19897   0.75019   0.0000000000
C          C       0.63554   0.14237   0.75003   0.0000000000
C          C       0.66860   0.16962   0.75069   0.0000000000
H          H       0.60750   0.05222   0.63053   0.0000000000
H          H       0.60968   0.05786   0.88173   0.0000000000
H          H       0.62315   0.10216   0.91176   0.0000000000
H          H       0.75343   0.21461   0.86767   0.0000000000
H          H       0.75833   0.21178   0.60785   0.0000000000
H          H       0.78228   0.19848   0.77448   0.0000000000
N          N       0.03669   0.47822   0.75000   0.0000000000
C          C       0.04499   0.51432   0.75000   0.0000000000
C          C       0.08121   0.54376   0.75000   0.0000000000
S          S       0.11643   0.53744   0.75000   0.0000000000
C          C       0.01573   0.51747   0.75000   0.0000000000
C          C       0.99864   0.45834   0.75000   0.0000000000
O          O       0.98261   0.42581   0.75000   0.0000000000
C          C       0.08970   0.57845   0.75000   0.0000000000
C          C       0.12531   0.60049   0.75000   0.0000000000
C          C       0.14275   0.58188   0.75000   0.0000000000
B          B       0.18331   0.59987   0.75000   0.0000000000
O          O       0.20627   0.63787   0.75000   0.0000000000
O          O       0.20205   0.58032   0.75000   0.0000000000
C          C       0.23865   0.63990   0.75000   0.0000000000
C          C       0.23642   0.60763   0.75000   0.0000000000
C          C       0.26604   0.60280   0.75000   0.0000000000
C          C       0.27048   0.67072   0.75000   0.0000000000
C          C       0.30192   0.66893   0.75000   0.0000000000
C          C       0.29954   0.63494   0.75000   0.0000000000
H          H       0.73783   0.42478   0.75000   0.0000000000
H          H       0.63008   0.49348   0.75000   0.0000000000
H          H       0.48260   0.06807   0.75000   0.0000000000
H          H       0.57433   0.27132   0.75000   0.0000000000
C          C       0.93780   0.53521   0.75000   0.0000000000
C          C       0.89805   0.52126   0.75000   0.0000000000
C          C       0.88920   0.55078   0.75080   0.0000000000
C          C       0.83232   0.54324   0.74919   0.0000000000
C          C       0.80102   0.55795   0.74991   0.0000000000
C          C       0.86026   0.49013   0.75000   0.0000000000
C          C       0.82477   0.48832   0.74901   0.0000000000
H          H       0.94778   0.55528   0.63053   0.0000000000
H          H       0.94214   0.55183   0.88173   0.0000000000
H          H       0.89805   0.52126   0.91134   0.0000000000
C          C       0.54899   0.59810   0.74797   0.0000000000
H          H       0.56678   0.60627   0.61198   0.0000000000
H          H       0.56694   0.60591   0.88030   0.0000000000
C          C       0.52758   0.61625   0.74756   0.0000000000
H          H       0.52668   0.61535   0.58431   0.0000000000
C          C       0.55555   0.65611   0.74662   0.0000000000
C          C       0.58024   0.72738   0.74311   0.0000000000
C          C       0.58099   0.76233   0.74227   0.0000000000
H          H       0.59529   0.77825   0.60614   0.0000000000
H          H       0.59619   0.77877   0.87335   0.0000000000
H          H       0.55204   0.75587   0.74668   0.0000000000
C          C       0.50239   0.63049   0.74934   0.0000000000
H          H       0.48275   0.61613   0.87485   0.0000000000
H          H       0.48453   0.62076   0.61666   0.0000000000
C          C       0.50898   0.66811   0.74814   0.0000000000
C          C       0.34044   0.81463   0.74814   0.0000000000
H          H       0.38477   0.86232   0.87680   0.0000000000
H          H       0.36916   0.86043   0.59646   0.0000000000
H          H       0.33491   0.80456   0.89251   0.0000000000
H          H       0.35229   0.80280   0.66896   0.0000000000
H          H       0.31568   0.80818   0.68178   0.0000000000
H          H       0.27092   0.85062   0.87553   0.0000000000
H          H       0.27228   0.84809   0.61142   0.0000000000
H          H       0.33363   0.89957   0.62447   0.0000000000
H          H       0.33300   0.89925   0.87481   0.0000000000
H          H       0.10005   0.43357   0.62447   0.0000000000
H          H       0.10036   0.43435   0.88006   0.0000000000
H          H       0.14805   0.41944   0.87553   0.0000000000
H          H       0.15342   0.42576   0.60676   0.0000000000
C          C       0.18236   0.53792   0.72303   0.0000000000
H          H       0.14300   0.51392   0.90100   0.0000000000
H          H       0.13576   0.52548   0.64299   0.0000000000
H          H       0.19529   0.54311   0.85948   0.0000000000
H          H       0.19522   0.55235   0.60665   0.0000000000
H          H       0.18576   0.51857   0.62958   0.0000000000
H          H       0.16271   0.48029   0.87592   0.0000000000
H          H       0.16221   0.47925   0.61905   0.0000000000
C          C       0.58806   0.69476   0.75122   0.0000000000
H          H       0.54050   0.66114   0.85071   0.0000000000
H          H       0.56803   0.65236   0.62490   0.0000000000
H          H       0.60516   0.69829   0.63135   0.0000000000
H          H       0.59963   0.69703   0.88979   0.0000000000
H          H       0.59164   0.73713   0.61941   0.0000000000
H          H       0.58778   0.73227   0.89096   0.0000000000
H          H       0.52733   0.68356   0.63338   0.0000000000
H          H       0.52001   0.68120   0.88300   0.0000000000
H          H       0.48374   0.66614   0.72810   0.0000000000
C          C       0.42422   0.29726   0.80190   0.0000000000
H          H       0.48878   0.32187   0.62159   0.0000000000
H          H       0.48982   0.31832   0.89531   0.0000000000
H          H       0.52513   0.33170   0.74408   0.0000000000
H          H       0.52557   0.38259   0.87553   0.0000000000
H          H       0.52318   0.38069   0.61427   0.0000000000
C          C       0.70228   0.12376   0.80667   0.0000000000
H          H       0.67032   0.12987   0.63235   0.0000000000
H          H       0.65274   0.08860   0.84087   0.0000000000
H          H       0.71026   0.10806   0.73222   0.0000000000
H          H       0.70410   0.12034   0.95751   0.0000000000
H          H       0.72916   0.15617   0.60363   0.0000000000
H          H       0.71632   0.16738   0.87367   0.0000000000
H          H       0.62033   0.14433   0.88597   0.0000000000
H          H       0.62140   0.14403   0.61084   0.0000000000
H          H       0.68013   0.16774   0.87916   0.0000000000
H          H       0.67060   0.19418   0.74357   0.0000000000
H          H       0.68264   0.16873   0.62713   0.0000000000
H          H       0.85538   0.47465   0.87897   0.0000000000
H          H       0.85660   0.47660   0.61617   0.0000000000
H          H       0.82608   0.50127   0.88829   0.0000000000
H          H       0.80421   0.47504   0.74308   0.0000000000
H          H       0.82928   0.50950   0.59146   0.0000000000
C          C       0.87305   0.57516   0.73269   0.0000000000
H          H       0.90880   0.57139   0.65714   0.0000000000
H          H       0.88820   0.55460   0.90263   0.0000000000
H          H       0.31038   0.85516   0.53553   0.0000000000
H          H       0.31750   0.83728   0.75719   0.0000000000
H          H       0.88686   0.59534   0.83891   0.0000000000
H          H       0.87674   0.58060   0.58151   0.0000000000
H          H       0.78186   0.53127   0.79844   0.0000000000
H          H       0.79442   0.56142   0.60729   0.0000000000
H          H       0.80009   0.57640   0.84384   0.0000000000
H          H       0.82869   0.52891   0.87996   0.0000000000
H          H       0.82655   0.52673   0.62618   0.0000000000
H          H       0.43097   0.34720   0.83791   0.0000000000
H          H       0.45889   0.33633   0.63208   0.0000000000
H          H       0.50094   0.40401   0.73965   0.0000000000
H          H       0.41923   0.29323   0.95345   0.0000000000
H          H       0.39992   0.28604   0.71995   0.0000000000
H          H       0.44621   0.28269   0.58660   0.0000000000
H          H       0.46400   0.28954   0.84272   0.0000000000
H          H       0.40756   0.21850   0.67239   0.0000000000
H          H       0.42054   0.22653   0.91288   0.0000000000
H          H       0.45171   0.23204   0.73571   0.0000000000
