data_image0
_cell_length_a       43.8379
_cell_length_b       43.8379
_cell_length_c       9.0257
_cell_angle_alpha    90
_cell_angle_beta     90
_cell_angle_gamma    120

_symmetry_space_group_name_H-M    "P 1"
_symmetry_int_tables_number       1

loop_
  _symmetry_equiv_pos_as_xyz
  'x, y, z'

loop_
  _atom_site_label
  _atom_site_occupancy
  _atom_site_fract_x
  _atom_site_fract_y
  _atom_site_fract_z
  _atom_site_thermal_displace_type
  _atom_site_B_iso_or_equiv
  _atom_site_type_symbol
  C1       1.0000 0.69167  0.32246  0.34009  Biso   1.000  C
  C2       1.0000 0.67754  0.36921  0.34009  Biso   1.000  C
  C3       1.0000 0.63079  0.30833  0.34009  Biso   1.000  C
  C4       1.0000 0.35834  0.65579  0.67342  Biso   1.000  C
  C5       1.0000 0.34421  0.70254  0.67342  Biso   1.000  C
  C6       1.0000 0.29746  0.64166  0.67342  Biso   1.000  C
  C7       1.0000 0.02500  0.98913  0.00676  Biso   1.000  C
  C8       1.0000 0.01087  0.03588  0.00676  Biso   1.000  C
  C9       1.0000 0.96412  0.97500  0.00676  Biso   1.000  C
  C10      1.0000 0.70274  0.35848  0.33956  Biso   1.000  C
  C11      1.0000 0.64152  0.34426  0.33956  Biso   1.000  C
  C12      1.0000 0.65574  0.29726  0.33956  Biso   1.000  C
  C13      1.0000 0.36941  0.69181  0.67289  Biso   1.000  C
  C14      1.0000 0.30819  0.67759  0.67289  Biso   1.000  C
  C15      1.0000 0.32241  0.63059  0.67289  Biso   1.000  C
  C16      1.0000 0.03607  0.02515  0.00623  Biso   1.000  C
  C17      1.0000 0.97485  0.01093  0.00623  Biso   1.000  C
  C18      1.0000 0.98907  0.96393  0.00623  Biso   1.000  C
  C19      1.0000 0.74064  0.38480  0.33647  Biso   1.000  C
  C20      1.0000 0.61520  0.35584  0.33647  Biso   1.000  C
  C21      1.0000 0.64416  0.25936  0.33647  Biso   1.000  C
  C22      1.0000 0.40731  0.71813  0.66980  Biso   1.000  C
  C23      1.0000 0.28187  0.68917  0.66980  Biso   1.000  C
  C24      1.0000 0.31083  0.59269  0.66980  Biso   1.000  C
  C25      1.0000 0.07397  0.05147  0.00314  Biso   1.000  C
  C26      1.0000 0.94853  0.02251  0.00314  Biso   1.000  C
  C27      1.0000 0.97749  0.92603  0.00314  Biso   1.000  C
  C28      1.0000 0.75349  0.41380  0.24118  Biso   1.000  C
  C29      1.0000 0.58620  0.33969  0.24118  Biso   1.000  C
  C30      1.0000 0.66031  0.24651  0.24118  Biso   1.000  C
  C31      1.0000 0.42016  0.74713  0.57451  Biso   1.000  C
  C32      1.0000 0.25287  0.67302  0.57451  Biso   1.000  C
  C33      1.0000 0.32698  0.57984  0.57451  Biso   1.000  C
  C34      1.0000 0.08682  0.08047  0.90785  Biso   1.000  C
  C35      1.0000 0.91953  0.00636  0.90785  Biso   1.000  C
  C36      1.0000 0.99364  0.91318  0.90785  Biso   1.000  C
  C37      1.0000 0.78960  0.43864  0.23370  Biso   1.000  C
  C38      1.0000 0.56136  0.35096  0.23370  Biso   1.000  C
  C39      1.0000 0.64904  0.21040  0.23370  Biso   1.000  C
  C40      1.0000 0.45627  0.77197  0.56703  Biso   1.000  C
  C41      1.0000 0.22803  0.68429  0.56703  Biso   1.000  C
  C42      1.0000 0.31571  0.54373  0.56703  Biso   1.000  C
  C43      1.0000 0.12293  0.10531  0.90037  Biso   1.000  C
  C44      1.0000 0.89469  0.01763  0.90037  Biso   1.000  C
  C45      1.0000 0.98237  0.87707  0.90037  Biso   1.000  C
  C46      1.0000 0.81327  0.43275  0.32059  Biso   1.000  C
  C47      1.0000 0.56725  0.38052  0.32059  Biso   1.000  C
  C48      1.0000 0.61948  0.18673  0.32059  Biso   1.000  C
  C49      1.0000 0.47994  0.76608  0.65392  Biso   1.000  C
  C50      1.0000 0.23392  0.71385  0.65392  Biso   1.000  C
  C51      1.0000 0.28615  0.52006  0.65392  Biso   1.000  C
  C52      1.0000 0.14660  0.09942  0.98726  Biso   1.000  C
  C53      1.0000 0.90058  0.04719  0.98726  Biso   1.000  C
  C54      1.0000 0.95281  0.85340  0.98726  Biso   1.000  C
  C55      1.0000 0.80005  0.40529  0.42666  Biso   1.000  C
  C56      1.0000 0.59471  0.39476  0.42666  Biso   1.000  C
  C57      1.0000 0.60524  0.19995  0.42666  Biso   1.000  C
  C58      1.0000 0.46672  0.73862  0.75999  Biso   1.000  C
  C59      1.0000 0.26138  0.72809  0.75999  Biso   1.000  C
  C60      1.0000 0.27191  0.53328  0.75999  Biso   1.000  C
  C61      1.0000 0.13338  0.07196  0.09333  Biso   1.000  C
  C62      1.0000 0.92804  0.06143  0.09333  Biso   1.000  C
  C63      1.0000 0.93857  0.86662  0.09333  Biso   1.000  C
  C64      1.0000 0.76382  0.38128  0.43148  Biso   1.000  C
  C65      1.0000 0.61872  0.38254  0.43148  Biso   1.000  C
  C66      1.0000 0.61746  0.23618  0.43148  Biso   1.000  C
  C67      1.0000 0.43049  0.71461  0.76481  Biso   1.000  C
  C68      1.0000 0.28539  0.71587  0.76481  Biso   1.000  C
  C69      1.0000 0.28413  0.56951  0.76481  Biso   1.000  C
  C70      1.0000 0.09715  0.04795  0.09815  Biso   1.000  C
  C71      1.0000 0.95205  0.04921  0.09815  Biso   1.000  C
  C72      1.0000 0.95079  0.90285  0.09815  Biso   1.000  C
  N1       1.0000 0.85054  0.45272  0.29969  Biso   1.000  N
  N2       1.0000 0.54728  0.39782  0.29969  Biso   1.000  N
  N3       1.0000 0.60218  0.14946  0.29969  Biso   1.000  N
  N4       1.0000 0.51721  0.78605  0.63302  Biso   1.000  N
  N5       1.0000 0.21395  0.73115  0.63302  Biso   1.000  N
  N6       1.0000 0.26885  0.48279  0.63302  Biso   1.000  N
  N7       1.0000 0.18387  0.11939  0.96636  Biso   1.000  N
  N8       1.0000 0.88061  0.06449  0.96636  Biso   1.000  N
  N9       1.0000 0.93551  0.81613  0.96636  Biso   1.000  N
  C73      1.0000 0.86599  0.44959  0.18295  Biso   1.000  C
  C74      1.0000 0.55041  0.41640  0.18295  Biso   1.000  C
  C75      1.0000 0.58360  0.13401  0.18295  Biso   1.000  C
  C76      1.0000 0.53266  0.78292  0.51628  Biso   1.000  C
  C77      1.0000 0.21708  0.74973  0.51628  Biso   1.000  C
  C78      1.0000 0.25027  0.46734  0.51628  Biso   1.000  C
  C79      1.0000 0.19932  0.11626  0.84962  Biso   1.000  C
  C80      1.0000 0.88374  0.08307  0.84962  Biso   1.000  C
  C81      1.0000 0.91693  0.80068  0.84962  Biso   1.000  C
  C82      1.0000 0.90471  0.46677  0.17966  Biso   1.000  C
  C83      1.0000 0.53323  0.43794  0.17966  Biso   1.000  C
  C84      1.0000 0.56206  0.09529  0.17966  Biso   1.000  C
  C85      1.0000 0.57138  0.80010  0.51299  Biso   1.000  C
  C86      1.0000 0.19990  0.77127  0.51299  Biso   1.000  C
  C87      1.0000 0.22873  0.42862  0.51299  Biso   1.000  C
  C88      1.0000 0.23804  0.13344  0.84633  Biso   1.000  C
  C89      1.0000 0.86656  0.10461  0.84633  Biso   1.000  C
  C90      1.0000 0.89539  0.76196  0.84633  Biso   1.000  C
  C91      1.0000 0.92478  0.48460  0.05329  Biso   1.000  C
  C92      1.0000 0.51540  0.44018  0.05329  Biso   1.000  C
  C93      1.0000 0.55982  0.07522  0.05329  Biso   1.000  C
  C94      1.0000 0.59145  0.81793  0.38662  Biso   1.000  C
  C95      1.0000 0.18207  0.77351  0.38662  Biso   1.000  C
  C96      1.0000 0.22649  0.40855  0.38662  Biso   1.000  C
  C97      1.0000 0.25811  0.15127  0.71996  Biso   1.000  C
  C98      1.0000 0.84873  0.10685  0.71996  Biso   1.000  C
  C99      1.0000 0.89315  0.74189  0.71996  Biso   1.000  C
  C100     1.0000 0.96206  0.50023  0.05801  Biso   1.000  C
  C101     1.0000 0.49977  0.46183  0.05801  Biso   1.000  C
  C102     1.0000 0.53817  0.03794  0.05801  Biso   1.000  C
  C103     1.0000 0.62873  0.83356  0.39134  Biso   1.000  C
  C104     1.0000 0.16644  0.79516  0.39134  Biso   1.000  C
  C105     1.0000 0.20484  0.37127  0.39134  Biso   1.000  C
  C106     1.0000 0.29539  0.16690  0.72468  Biso   1.000  C
  C107     1.0000 0.83310  0.12850  0.72468  Biso   1.000  C
  C108     1.0000 0.87150  0.70461  0.72468  Biso   1.000  C
  C109     1.0000 0.97846  0.49697  0.18771  Biso   1.000  C
  C110     1.0000 0.50303  0.48149  0.18771  Biso   1.000  C
  C111     1.0000 0.51851  0.02154  0.18771  Biso   1.000  C
  C112     1.0000 0.64513  0.83030  0.52104  Biso   1.000  C
  C113     1.0000 0.16970  0.81482  0.52104  Biso   1.000  C
  C114     1.0000 0.18518  0.35487  0.52104  Biso   1.000  C
  C115     1.0000 0.31179  0.16364  0.85438  Biso   1.000  C
  C116     1.0000 0.83636  0.14816  0.85438  Biso   1.000  C
  C117     1.0000 0.85184  0.68821  0.85438  Biso   1.000  C
  C118     1.0000 0.95825  0.47844  0.31149  Biso   1.000  C
  C119     1.0000 0.52156  0.47981  0.31149  Biso   1.000  C
  C120     1.0000 0.52019  0.04175  0.31149  Biso   1.000  C
  C121     1.0000 0.62492  0.81177  0.64482  Biso   1.000  C
  C122     1.0000 0.18823  0.81314  0.64482  Biso   1.000  C
  C123     1.0000 0.18686  0.37508  0.64482  Biso   1.000  C
  C124     1.0000 0.29158  0.14511  0.97816  Biso   1.000  C
  C125     1.0000 0.85489  0.14648  0.97816  Biso   1.000  C
  C126     1.0000 0.85352  0.70842  0.97816  Biso   1.000  C
  C127     1.0000 0.92159  0.46398  0.30652  Biso   1.000  C
  C128     1.0000 0.53602  0.45761  0.30652  Biso   1.000  C
  C129     1.0000 0.54239  0.07841  0.30652  Biso   1.000  C
  C130     1.0000 0.58826  0.79731  0.63985  Biso   1.000  C
  C131     1.0000 0.20269  0.79094  0.63985  Biso   1.000  C
  C132     1.0000 0.20906  0.41174  0.63985  Biso   1.000  C
  C133     1.0000 0.25492  0.13065  0.97319  Biso   1.000  C
  C134     1.0000 0.86935  0.12428  0.97319  Biso   1.000  C
  C135     1.0000 0.87572  0.74508  0.97319  Biso   1.000  C
  C136     1.0000 0.01717  0.51213  0.19704  Biso   1.000  C
  C137     1.0000 0.48787  0.50504  0.19704  Biso   1.000  C
  C138     1.0000 0.49496  0.98283  0.19704  Biso   1.000  C
  C139     1.0000 0.68384  0.84546  0.53037  Biso   1.000  C
  C140     1.0000 0.15454  0.83837  0.53037  Biso   1.000  C
  C141     1.0000 0.16163  0.31616  0.53037  Biso   1.000  C
  C142     1.0000 0.35050  0.17880  0.86371  Biso   1.000  C
  C143     1.0000 0.82120  0.17171  0.86371  Biso   1.000  C
  C144     1.0000 0.82829  0.64950  0.86371  Biso   1.000  C
  C145     1.0000 0.03695  0.54407  0.27364  Biso   1.000  C
  C146     1.0000 0.45593  0.49288  0.27364  Biso   1.000  C
  C147     1.0000 0.50712  0.96305  0.27364  Biso   1.000  C
  C148     1.0000 0.70362  0.87740  0.60697  Biso   1.000  C
  C149     1.0000 0.12260  0.82621  0.60697  Biso   1.000  C
  C150     1.0000 0.17379  0.29638  0.60697  Biso   1.000  C
  C151     1.0000 0.37028  0.21074  0.94031  Biso   1.000  C
  C152     1.0000 0.78926  0.15955  0.94031  Biso   1.000  C
  C153     1.0000 0.84045  0.62972  0.94031  Biso   1.000  C
  C154     1.0000 0.07345  0.55804  0.29005  Biso   1.000  C
  C155     1.0000 0.44196  0.51541  0.29005  Biso   1.000  C
  C156     1.0000 0.48459  0.92655  0.29005  Biso   1.000  C
  C157     1.0000 0.74012  0.89137  0.62338  Biso   1.000  C
  C158     1.0000 0.10863  0.84874  0.62338  Biso   1.000  C
  C159     1.0000 0.15126  0.25988  0.62338  Biso   1.000  C
  C160     1.0000 0.40678  0.22471  0.95672  Biso   1.000  C
  C161     1.0000 0.77529  0.18208  0.95672  Biso   1.000  C
  C162     1.0000 0.81792  0.59322  0.95672  Biso   1.000  C
  C163     1.0000 0.09033  0.54069  0.23254  Biso   1.000  C
  C164     1.0000 0.45931  0.54964  0.23254  Biso   1.000  C
  C165     1.0000 0.45036  0.90967  0.23254  Biso   1.000  C
  C166     1.0000 0.75700  0.87402  0.56587  Biso   1.000  C
  C167     1.0000 0.12598  0.88297  0.56587  Biso   1.000  C
  C168     1.0000 0.11703  0.24300  0.56587  Biso   1.000  C
  C169     1.0000 0.42366  0.20736  0.89921  Biso   1.000  C
  C170     1.0000 0.79264  0.21631  0.89921  Biso   1.000  C
  C171     1.0000 0.78369  0.57634  0.89921  Biso   1.000  C
  C172     1.0000 0.07020  0.50747  0.16222  Biso   1.000  C
  C173     1.0000 0.49253  0.56273  0.16222  Biso   1.000  C
  C174     1.0000 0.43727  0.92980  0.16222  Biso   1.000  C
  C175     1.0000 0.73687  0.84080  0.49555  Biso   1.000  C
  C176     1.0000 0.15920  0.89606  0.49555  Biso   1.000  C
  C177     1.0000 0.10394  0.26313  0.49555  Biso   1.000  C
  C178     1.0000 0.40353  0.17414  0.82889  Biso   1.000  C
  C179     1.0000 0.82586  0.22940  0.82889  Biso   1.000  C
  C180     1.0000 0.77060  0.59647  0.82889  Biso   1.000  C
  C181     1.0000 0.03345  0.49356  0.14144  Biso   1.000  C
  C182     1.0000 0.50644  0.53989  0.14144  Biso   1.000  C
  C183     1.0000 0.46011  0.96655  0.14144  Biso   1.000  C
  C184     1.0000 0.70012  0.82689  0.47477  Biso   1.000  C
  C185     1.0000 0.17311  0.87322  0.47477  Biso   1.000  C
  C186     1.0000 0.12678  0.29988  0.47477  Biso   1.000  C
  C187     1.0000 0.36678  0.16023  0.80811  Biso   1.000  C
  C188     1.0000 0.83977  0.20656  0.80811  Biso   1.000  C
  C189     1.0000 0.79344  0.63322  0.80811  Biso   1.000  C
  C190     1.0000 0.12916  0.55976  0.23991  Biso   1.000  C
  C191     1.0000 0.44024  0.56940  0.23991  Biso   1.000  C
  C192     1.0000 0.43060  0.87084  0.23991  Biso   1.000  C
  C193     1.0000 0.79583  0.89309  0.57324  Biso   1.000  C
  C194     1.0000 0.10691  0.90273  0.57324  Biso   1.000  C
  C195     1.0000 0.09727  0.20417  0.57324  Biso   1.000  C
  C196     1.0000 0.46249  0.22643  0.90658  Biso   1.000  C
  C197     1.0000 0.77357  0.23607  0.90658  Biso   1.000  C
  C198     1.0000 0.76393  0.53751  0.90658  Biso   1.000  C
  C199     1.0000 0.20649  0.57384  0.22252  Biso   1.000  C
  C200     1.0000 0.42616  0.63265  0.22252  Biso   1.000  C
  C201     1.0000 0.36735  0.79351  0.22252  Biso   1.000  C
  C202     1.0000 0.87316  0.90717  0.55585  Biso   1.000  C
  C203     1.0000 0.09283  0.96598  0.55585  Biso   1.000  C
  C204     1.0000 0.03402  0.12684  0.55585  Biso   1.000  C
  C205     1.0000 0.53982  0.24051  0.88919  Biso   1.000  C
  C206     1.0000 0.75949  0.29932  0.88919  Biso   1.000  C
  C207     1.0000 0.70068  0.46018  0.88919  Biso   1.000  C
  C208     1.0000 0.18478  0.57881  0.11950  Biso   1.000  C
  C209     1.0000 0.42119  0.60597  0.11950  Biso   1.000  C
  C210     1.0000 0.39403  0.81522  0.11950  Biso   1.000  C
  C211     1.0000 0.85145  0.91214  0.45283  Biso   1.000  C
  C212     1.0000 0.08786  0.93930  0.45283  Biso   1.000  C
  C213     1.0000 0.06070  0.14855  0.45283  Biso   1.000  C
  C214     1.0000 0.51811  0.24548  0.78617  Biso   1.000  C
  C215     1.0000 0.75452  0.27264  0.78617  Biso   1.000  C
  C216     1.0000 0.72736  0.48189  0.78617  Biso   1.000  C
  N10      1.0000 0.14726  0.55864  0.12879  Biso   1.000  N
  N11      1.0000 0.44136  0.58862  0.12879  Biso   1.000  N
  N12      1.0000 0.41138  0.85274  0.12879  Biso   1.000  N
  N13      1.0000 0.81393  0.89197  0.46212  Biso   1.000  N
  N14      1.0000 0.10803  0.92195  0.46212  Biso   1.000  N
  N15      1.0000 0.07805  0.18607  0.46212  Biso   1.000  N
  N16      1.0000 0.48059  0.22531  0.79546  Biso   1.000  N
  N17      1.0000 0.77469  0.25529  0.79546  Biso   1.000  N
  N18      1.0000 0.74471  0.51941  0.79546  Biso   1.000  N
  C217     1.0000 0.20014  0.60319  0.00139  Biso   1.000  C
  C218     1.0000 0.39681  0.59695  0.00139  Biso   1.000  C
  C219     1.0000 0.40305  0.79986  0.00139  Biso   1.000  C
  C220     1.0000 0.86681  0.93652  0.33472  Biso   1.000  C
  C221     1.0000 0.06348  0.93028  0.33472  Biso   1.000  C
  C222     1.0000 0.06972  0.13319  0.33472  Biso   1.000  C
  C223     1.0000 0.53347  0.26986  0.66806  Biso   1.000  C
  C224     1.0000 0.73014  0.26362  0.66806  Biso   1.000  C
  C225     1.0000 0.73638  0.46653  0.66806  Biso   1.000  C
  C226     1.0000 0.23685  0.62440  0.99573  Biso   1.000  C
  C227     1.0000 0.37560  0.61245  0.99573  Biso   1.000  C
  C228     1.0000 0.38755  0.76315  0.99573  Biso   1.000  C
  C229     1.0000 0.90352  0.95773  0.32906  Biso   1.000  C
  C230     1.0000 0.04227  0.94578  0.32906  Biso   1.000  C
  C231     1.0000 0.05422  0.09648  0.32906  Biso   1.000  C
  C232     1.0000 0.57018  0.29107  0.66240  Biso   1.000  C
  C233     1.0000 0.70893  0.27912  0.66240  Biso   1.000  C
  C234     1.0000 0.72088  0.42982  0.66240  Biso   1.000  C
  C235     1.0000 0.25830  0.62078  0.10015  Biso   1.000  C
  C236     1.0000 0.37922  0.63752  0.10015  Biso   1.000  C
  C237     1.0000 0.36248  0.74170  0.10015  Biso   1.000  C
  C238     1.0000 0.92497  0.95411  0.43348  Biso   1.000  C
  C239     1.0000 0.04589  0.97085  0.43348  Biso   1.000  C
  C240     1.0000 0.02915  0.07503  0.43348  Biso   1.000  C
  C241     1.0000 0.59163  0.28745  0.76682  Biso   1.000  C
  C242     1.0000 0.71255  0.30419  0.76682  Biso   1.000  C
  C243     1.0000 0.69581  0.40837  0.76682  Biso   1.000  C
  C244     1.0000 0.24320  0.59528  0.21096  Biso   1.000  C
  C245     1.0000 0.40472  0.64792  0.21096  Biso   1.000  C
  C246     1.0000 0.35208  0.75680  0.21096  Biso   1.000  C
  C247     1.0000 0.90987  0.92861  0.54429  Biso   1.000  C
  C248     1.0000 0.07139  0.98125  0.54429  Biso   1.000  C
  C249     1.0000 0.01875  0.09013  0.54429  Biso   1.000  C
  C250     1.0000 0.57653  0.26195  0.87763  Biso   1.000  C
  C251     1.0000 0.73805  0.31459  0.87763  Biso   1.000  C
  C252     1.0000 0.68541  0.42347  0.87763  Biso   1.000  C
  C253     1.0000 0.29671  0.64419  0.09487  Biso   1.000  C
  C254     1.0000 0.35581  0.65252  0.09487  Biso   1.000  C
  C255     1.0000 0.34748  0.70329  0.09487  Biso   1.000  C
  C256     1.0000 0.96338  0.97752  0.42820  Biso   1.000  C
  C257     1.0000 0.02248  0.98585  0.42820  Biso   1.000  C
  C258     1.0000 0.01415  0.03662  0.42820  Biso   1.000  C
  C259     1.0000 0.63004  0.31086  0.76154  Biso   1.000  C
  C260     1.0000 0.68914  0.31919  0.76154  Biso   1.000  C
  C261     1.0000 0.68081  0.36996  0.76154  Biso   1.000  C
  C262     1.0000 0.31093  0.68076  0.09480  Biso   1.000  C
  C263     1.0000 0.31924  0.63017  0.09480  Biso   1.000  C
  C264     1.0000 0.36983  0.68907  0.09480  Biso   1.000  C
  C265     1.0000 0.97760  0.01409  0.42813  Biso   1.000  C
  C266     1.0000 0.98591  0.96350  0.42813  Biso   1.000  C
  C267     1.0000 0.03650  0.02240  0.42813  Biso   1.000  C
  C268     1.0000 0.64426  0.34743  0.76147  Biso   1.000  C
  C269     1.0000 0.65257  0.29684  0.76147  Biso   1.000  C
  C270     1.0000 0.70316  0.35574  0.76147  Biso   1.000  C
  C271     1.0000 0.90874  0.48789  0.92331  Biso   1.000  C
  C272     1.0000 0.51211  0.42085  0.92331  Biso   1.000  C
  C273     1.0000 0.57915  0.09126  0.92331  Biso   1.000  C
  C274     1.0000 0.57541  0.82122  0.25664  Biso   1.000  C
  C275     1.0000 0.17878  0.75418  0.25664  Biso   1.000  C
  C276     1.0000 0.24582  0.42459  0.25664  Biso   1.000  C
  C277     1.0000 0.24207  0.15456  0.58998  Biso   1.000  C
  C278     1.0000 0.84544  0.08752  0.58998  Biso   1.000  C
  C279     1.0000 0.91248  0.75793  0.58998  Biso   1.000  C
  C280     1.0000 0.92902  0.50612  0.80045  Biso   1.000  C
  C281     1.0000 0.49388  0.42290  0.80045  Biso   1.000  C
  C282     1.0000 0.57710  0.07098  0.80045  Biso   1.000  C
  C283     1.0000 0.59569  0.83945  0.13378  Biso   1.000  C
  C284     1.0000 0.16055  0.75623  0.13378  Biso   1.000  C
  C285     1.0000 0.24377  0.40431  0.13378  Biso   1.000  C
  C286     1.0000 0.26235  0.17279  0.46712  Biso   1.000  C
  C287     1.0000 0.82721  0.08957  0.46712  Biso   1.000  C
  C288     1.0000 0.91043  0.73765  0.46712  Biso   1.000  C
  C289     1.0000 0.96556  0.52145  0.80527  Biso   1.000  C
  C290     1.0000 0.47855  0.44411  0.80527  Biso   1.000  C
  C291     1.0000 0.55589  0.03444  0.80527  Biso   1.000  C
  C292     1.0000 0.63223  0.85478  0.13860  Biso   1.000  C
  C293     1.0000 0.14522  0.77744  0.13860  Biso   1.000  C
  C294     1.0000 0.22256  0.36777  0.13860  Biso   1.000  C
  C295     1.0000 0.29889  0.18812  0.47194  Biso   1.000  C
  C296     1.0000 0.81188  0.11078  0.47194  Biso   1.000  C
  C297     1.0000 0.88922  0.70111  0.47194  Biso   1.000  C
  C298     1.0000 0.98202  0.51865  0.93261  Biso   1.000  C
  C299     1.0000 0.48135  0.46337  0.93261  Biso   1.000  C
  C300     1.0000 0.53663  0.01798  0.93261  Biso   1.000  C
  C301     1.0000 0.64869  0.85198  0.26594  Biso   1.000  C
  C302     1.0000 0.14802  0.79670  0.26594  Biso   1.000  C
  C303     1.0000 0.20330  0.35131  0.26594  Biso   1.000  C
  C304     1.0000 0.31535  0.18532  0.59928  Biso   1.000  C
  C305     1.0000 0.81468  0.13004  0.59928  Biso   1.000  C
  C306     1.0000 0.86996  0.68465  0.59928  Biso   1.000  C
  C307     1.0000 0.01365  0.46101  0.06744  Biso   1.000  C
  C308     1.0000 0.53899  0.55264  0.06744  Biso   1.000  C
  C309     1.0000 0.44736  0.98635  0.06744  Biso   1.000  C
  C310     1.0000 0.68032  0.79434  0.40077  Biso   1.000  C
  C311     1.0000 0.20566  0.88597  0.40077  Biso   1.000  C
  C312     1.0000 0.11403  0.31968  0.40077  Biso   1.000  C
  C313     1.0000 0.34698  0.12768  0.73411  Biso   1.000  C
  C314     1.0000 0.87232  0.21931  0.73411  Biso   1.000  C
  C315     1.0000 0.78069  0.65302  0.73411  Biso   1.000  C
  C316     1.0000 0.02961  0.44229  0.01730  Biso   1.000  C
  C317     1.0000 0.55771  0.58732  0.01730  Biso   1.000  C
  C318     1.0000 0.41268  0.97039  0.01730  Biso   1.000  C
  C319     1.0000 0.69628  0.77562  0.35063  Biso   1.000  C
  C320     1.0000 0.22438  0.92065  0.35063  Biso   1.000  C
  C321     1.0000 0.07935  0.30372  0.35063  Biso   1.000  C
  C322     1.0000 0.36294  0.10896  0.68397  Biso   1.000  C
  C323     1.0000 0.89104  0.25399  0.68397  Biso   1.000  C
  C324     1.0000 0.74601  0.63706  0.68397  Biso   1.000  C
  C325     1.0000 0.06531  0.45515  0.04266  Biso   1.000  C
  C326     1.0000 0.54485  0.61016  0.04266  Biso   1.000  C
  C327     1.0000 0.38984  0.93469  0.04266  Biso   1.000  C
  C328     1.0000 0.73198  0.78848  0.37599  Biso   1.000  C
  C329     1.0000 0.21152  0.94349  0.37599  Biso   1.000  C
  C330     1.0000 0.05651  0.26802  0.37599  Biso   1.000  C
  C331     1.0000 0.39864  0.12182  0.70933  Biso   1.000  C
  C332     1.0000 0.87818  0.27683  0.70933  Biso   1.000  C
  C333     1.0000 0.72317  0.60136  0.70933  Biso   1.000  C
  C334     1.0000 0.08539  0.48719  0.11582  Biso   1.000  C
  C335     1.0000 0.51281  0.59820  0.11582  Biso   1.000  C
  C336     1.0000 0.40180  0.91461  0.11582  Biso   1.000  C
  C337     1.0000 0.75206  0.82052  0.44915  Biso   1.000  C
  C338     1.0000 0.17948  0.93153  0.44915  Biso   1.000  C
  C339     1.0000 0.06847  0.24794  0.44915  Biso   1.000  C
  C340     1.0000 0.41872  0.15386  0.78249  Biso   1.000  C
  C341     1.0000 0.84614  0.26487  0.78249  Biso   1.000  C
  C342     1.0000 0.73513  0.58128  0.78249  Biso   1.000  C
  O1       1.0000 0.97611  0.47518  0.43574  Biso   1.000  O
  O2       1.0000 0.52482  0.50093  0.43574  Biso   1.000  O
  O3       1.0000 0.49907  0.02389  0.43574  Biso   1.000  O
  O4       1.0000 0.64278  0.80851  0.76907  Biso   1.000  O
  O5       1.0000 0.19149  0.83426  0.76907  Biso   1.000  O
  O6       1.0000 0.16574  0.35722  0.76907  Biso   1.000  O
  O7       1.0000 0.30944  0.14185  0.10241  Biso   1.000  O
  O8       1.0000 0.85815  0.16760  0.10241  Biso   1.000  O
  O9       1.0000 0.83240  0.69056  0.10241  Biso   1.000  O
  C343     1.0000 0.95601  0.45122  0.55139  Biso   1.000  C
  C344     1.0000 0.54878  0.50479  0.55139  Biso   1.000  C
  C345     1.0000 0.49521  0.04399  0.55139  Biso   1.000  C
  C346     1.0000 0.62268  0.78455  0.88472  Biso   1.000  C
  C347     1.0000 0.21545  0.83812  0.88472  Biso   1.000  C
  C348     1.0000 0.16188  0.37732  0.88472  Biso   1.000  C
  C349     1.0000 0.28934  0.11789  0.21806  Biso   1.000  C
  C350     1.0000 0.88211  0.17146  0.21806  Biso   1.000  C
  C351     1.0000 0.82854  0.71066  0.21806  Biso   1.000  C
  C352     1.0000 0.98092  0.45037  0.66647  Biso   1.000  C
  C353     1.0000 0.54963  0.53055  0.66647  Biso   1.000  C
  C354     1.0000 0.46945  0.01908  0.66647  Biso   1.000  C
  C355     1.0000 0.64759  0.78370  0.99980  Biso   1.000  C
  C356     1.0000 0.21630  0.86388  0.99980  Biso   1.000  C
  C357     1.0000 0.13612  0.35241  0.99980  Biso   1.000  C
  C358     1.0000 0.31425  0.11704  0.33314  Biso   1.000  C
  C359     1.0000 0.88296  0.19722  0.33314  Biso   1.000  C
  C360     1.0000 0.80278  0.68575  0.33314  Biso   1.000  C
  O10      1.0000 0.01885  0.56079  0.32933  Biso   1.000  O
  O11      1.0000 0.43921  0.45806  0.32933  Biso   1.000  O
  O12      1.0000 0.54194  0.98115  0.32933  Biso   1.000  O
  O13      1.0000 0.68552  0.89412  0.66266  Biso   1.000  O
  O14      1.0000 0.10588  0.79139  0.66266  Biso   1.000  O
  O15      1.0000 0.20861  0.31448  0.66266  Biso   1.000  O
  O16      1.0000 0.35218  0.22746  0.99600  Biso   1.000  O
  O17      1.0000 0.77254  0.12473  0.99600  Biso   1.000  O
  O18      1.0000 0.87527  0.64782  0.99600  Biso   1.000  O
  C361     1.0000 0.03779  0.59212  0.41556  Biso   1.000  C
  C362     1.0000 0.40788  0.44567  0.41556  Biso   1.000  C
  C363     1.0000 0.55433  0.96221  0.41556  Biso   1.000  C
  C364     1.0000 0.70446  0.92545  0.74889  Biso   1.000  C
  C365     1.0000 0.07455  0.77900  0.74889  Biso   1.000  C
  C366     1.0000 0.22100  0.29554  0.74889  Biso   1.000  C
  C367     1.0000 0.37112  0.25879  0.08223  Biso   1.000  C
  C368     1.0000 0.74121  0.11234  0.08223  Biso   1.000  C
  C369     1.0000 0.88766  0.62888  0.08223  Biso   1.000  C
  C370     1.0000 0.01263  0.60445  0.46593  Biso   1.000  C
  C371     1.0000 0.39555  0.40818  0.46593  Biso   1.000  C
  C372     1.0000 0.59182  0.98737  0.46593  Biso   1.000  C
  C373     1.0000 0.67930  0.93778  0.79926  Biso   1.000  C
  C374     1.0000 0.06222  0.74151  0.79926  Biso   1.000  C
  C375     1.0000 0.25849  0.32070  0.79926  Biso   1.000  C
  C376     1.0000 0.34596  0.27112  0.13260  Biso   1.000  C
  C377     1.0000 0.72888  0.07485  0.13260  Biso   1.000  C
  C378     1.0000 0.92515  0.65404  0.13260  Biso   1.000  C
  Cl1      1.0000 0.90843  0.50953  0.63944  Biso   1.000  Cl
  Cl2      1.0000 0.49047  0.39890  0.63944  Biso   1.000  Cl
  Cl3      1.0000 0.60110  0.09157  0.63944  Biso   1.000  Cl
  Cl4      1.0000 0.57510  0.84286  0.97277  Biso   1.000  Cl
  Cl5      1.0000 0.15714  0.73223  0.97277  Biso   1.000  Cl
  Cl6      1.0000 0.26777  0.42490  0.97277  Biso   1.000  Cl
  Cl7      1.0000 0.24176  0.17620  0.30611  Biso   1.000  Cl
  Cl8      1.0000 0.82380  0.06557  0.30611  Biso   1.000  Cl
  Cl9      1.0000 0.93443  0.75824  0.30611  Biso   1.000  Cl
  Cl10     1.0000 0.08502  0.43086  0.98402  Biso   1.000  Cl
  Cl11     1.0000 0.56914  0.65416  0.98402  Biso   1.000  Cl
  Cl12     1.0000 0.34584  0.91498  0.98402  Biso   1.000  Cl
  Cl13     1.0000 0.75169  0.76419  0.31735  Biso   1.000  Cl
  Cl14     1.0000 0.23581  0.98749  0.31735  Biso   1.000  Cl
  Cl15     1.0000 0.01251  0.24831  0.31735  Biso   1.000  Cl
  Cl16     1.0000 0.41835  0.09753  0.65069  Biso   1.000  Cl
  Cl17     1.0000 0.90247  0.32083  0.65069  Biso   1.000  Cl
  Cl18     1.0000 0.67917  0.58165  0.65069  Biso   1.000  Cl
  C379     1.0000 0.26482  0.75580  0.87135  Biso   1.000  C
  C380     1.0000 0.24420  0.50902  0.87135  Biso   1.000  C
  C381     1.0000 0.49098  0.73518  0.87135  Biso   1.000  C
  C382     1.0000 0.93149  0.08913  0.20468  Biso   1.000  C
  C383     1.0000 0.91087  0.84235  0.20468  Biso   1.000  C
  C384     1.0000 0.15765  0.06851  0.20468  Biso   1.000  C
  C385     1.0000 0.59815  0.42247  0.53802  Biso   1.000  C
  C386     1.0000 0.57753  0.17569  0.53802  Biso   1.000  C
  C387     1.0000 0.82431  0.40185  0.53802  Biso   1.000  C
  C388     1.0000 0.29987  0.79033  0.85383  Biso   1.000  C
  C389     1.0000 0.20967  0.50954  0.85383  Biso   1.000  C
  C390     1.0000 0.49046  0.70013  0.85383  Biso   1.000  C
  C391     1.0000 0.96654  0.12366  0.18716  Biso   1.000  C
  C392     1.0000 0.87634  0.84287  0.18716  Biso   1.000  C
  C393     1.0000 0.15713  0.03346  0.18716  Biso   1.000  C
  C394     1.0000 0.63320  0.45700  0.52050  Biso   1.000  C
  C395     1.0000 0.54300  0.17621  0.52050  Biso   1.000  C
  C396     1.0000 0.82379  0.36680  0.52050  Biso   1.000  C
  C397     1.0000 0.25995  0.74154  0.02968  Biso   1.000  C
  C398     1.0000 0.25846  0.51841  0.02968  Biso   1.000  C
  C399     1.0000 0.48159  0.74005  0.02968  Biso   1.000  C
  C400     1.0000 0.92662  0.07487  0.36301  Biso   1.000  C
  C401     1.0000 0.92513  0.85174  0.36301  Biso   1.000  C
  C402     1.0000 0.14826  0.07338  0.36301  Biso   1.000  C
  C403     1.0000 0.59328  0.40821  0.69635  Biso   1.000  C
  C404     1.0000 0.59179  0.18508  0.69635  Biso   1.000  C
  C405     1.0000 0.81492  0.40672  0.69635  Biso   1.000  C
  C406     1.0000 0.19567  0.66237  0.46996  Biso   1.000  C
  C407     1.0000 0.33763  0.53330  0.46996  Biso   1.000  C
  C408     1.0000 0.46670  0.80433  0.46996  Biso   1.000  C
  C409     1.0000 0.86234  0.99570  0.80329  Biso   1.000  C
  C410     1.0000 0.00430  0.86663  0.80329  Biso   1.000  C
  C411     1.0000 0.13337  0.13766  0.80329  Biso   1.000  C
  C412     1.0000 0.52900  0.32904  0.13663  Biso   1.000  C
  C413     1.0000 0.67096  0.19997  0.13663  Biso   1.000  C
  C414     1.0000 0.80003  0.47100  0.13663  Biso   1.000  C
  C415     1.0000 0.16216  0.66314  0.51332  Biso   1.000  C
  C416     1.0000 0.33686  0.49902  0.51332  Biso   1.000  C
  C417     1.0000 0.50098  0.83784  0.51332  Biso   1.000  C
  C418     1.0000 0.82883  0.99647  0.84665  Biso   1.000  C
  C419     1.0000 0.00353  0.83235  0.84665  Biso   1.000  C
  C420     1.0000 0.16765  0.17117  0.84665  Biso   1.000  C
  C421     1.0000 0.49549  0.32981  0.17999  Biso   1.000  C
  C422     1.0000 0.67019  0.16569  0.17999  Biso   1.000  C
  C423     1.0000 0.83431  0.50451  0.17999  Biso   1.000  C
  C424     1.0000 0.20444  0.67119  0.30605  Biso   1.000  C
  C425     1.0000 0.32881  0.53325  0.30605  Biso   1.000  C
  C426     1.0000 0.46675  0.79556  0.30605  Biso   1.000  C
  C427     1.0000 0.87111  0.00452  0.63938  Biso   1.000  C
  C428     1.0000 0.99548  0.86658  0.63938  Biso   1.000  C
  C429     1.0000 0.13342  0.12889  0.63938  Biso   1.000  C
  C430     1.0000 0.53777  0.33786  0.97272  Biso   1.000  C
  C431     1.0000 0.66214  0.19992  0.97272  Biso   1.000  C
  C432     1.0000 0.80008  0.46223  0.97272  Biso   1.000  C
  C433     1.0000 0.76274  0.48825  0.54684  Biso   1.000  C
  C434     1.0000 0.51175  0.27449  0.54684  Biso   1.000  C
  C435     1.0000 0.72551  0.23726  0.54684  Biso   1.000  C
  C436     1.0000 0.42941  0.82158  0.88017  Biso   1.000  C
  C437     1.0000 0.17842  0.60782  0.88017  Biso   1.000  C
  C438     1.0000 0.39218  0.57059  0.88017  Biso   1.000  C
  C439     1.0000 0.09607  0.15492  0.21351  Biso   1.000  C
  C440     1.0000 0.84508  0.94116  0.21351  Biso   1.000  C
  C441     1.0000 0.05884  0.90393  0.21351  Biso   1.000  C
  C442     1.0000 0.75369  0.51404  0.47025  Biso   1.000  C
  C443     1.0000 0.48596  0.23965  0.47025  Biso   1.000  C
  C444     1.0000 0.76035  0.24631  0.47025  Biso   1.000  C
  C445     1.0000 0.42036  0.84737  0.80358  Biso   1.000  C
  C446     1.0000 0.15263  0.57298  0.80358  Biso   1.000  C
  C447     1.0000 0.42702  0.57964  0.80358  Biso   1.000  C
  C448     1.0000 0.08702  0.18071  0.13692  Biso   1.000  C
  C449     1.0000 0.81929  0.90632  0.13692  Biso   1.000  C
  C450     1.0000 0.09368  0.91298  0.13692  Biso   1.000  C
  C451     1.0000 0.80066  0.50715  0.60492  Biso   1.000  C
  C452     1.0000 0.49285  0.29351  0.60492  Biso   1.000  C
  C453     1.0000 0.70649  0.19934  0.60492  Biso   1.000  C
  C454     1.0000 0.46733  0.84048  0.93825  Biso   1.000  C
  C455     1.0000 0.15952  0.62684  0.93825  Biso   1.000  C
  C456     1.0000 0.37316  0.53267  0.93825  Biso   1.000  C
  C457     1.0000 0.13399  0.17382  0.27159  Biso   1.000  C
  C458     1.0000 0.82618  0.96018  0.27159  Biso   1.000  C
  C459     1.0000 0.03982  0.86601  0.27159  Biso   1.000  C
  C460     1.0000 0.68730  0.47522  0.00893  Biso   1.000  C
  C461     1.0000 0.52478  0.21208  0.00893  Biso   1.000  C
  C462     1.0000 0.78792  0.31270  0.00893  Biso   1.000  C
  C463     1.0000 0.35397  0.80855  0.34226  Biso   1.000  C
  C464     1.0000 0.19145  0.54541  0.34226  Biso   1.000  C
  C465     1.0000 0.45459  0.64603  0.34226  Biso   1.000  C
  C466     1.0000 0.02063  0.14189  0.67560  Biso   1.000  C
  C467     1.0000 0.85811  0.87875  0.67560  Biso   1.000  C
  C468     1.0000 0.12125  0.97937  0.67560  Biso   1.000  C
  C469     1.0000 0.64826  0.46334  0.98661  Biso   1.000  C
  C470     1.0000 0.53666  0.18492  0.98661  Biso   1.000  C
  C471     1.0000 0.81508  0.35174  0.98661  Biso   1.000  C
  C472     1.0000 0.31493  0.79667  0.31994  Biso   1.000  C
  C473     1.0000 0.20333  0.51825  0.31994  Biso   1.000  C
  C474     1.0000 0.48175  0.68507  0.31994  Biso   1.000  C
  C475     1.0000 0.98159  0.13001  0.65328  Biso   1.000  C
  C476     1.0000 0.86999  0.85159  0.65328  Biso   1.000  C
  C477     1.0000 0.14841  0.01841  0.65328  Biso   1.000  C
  C478     1.0000 0.69351  0.46523  0.16415  Biso   1.000  C
  C479     1.0000 0.53477  0.22828  0.16415  Biso   1.000  C
  C480     1.0000 0.77172  0.30649  0.16415  Biso   1.000  C
  C481     1.0000 0.36018  0.79856  0.49748  Biso   1.000  C
  C482     1.0000 0.20144  0.56161  0.49748  Biso   1.000  C
  C483     1.0000 0.43839  0.63982  0.49748  Biso   1.000  C
  C484     1.0000 0.02684  0.13190  0.83082  Biso   1.000  C
  C485     1.0000 0.86810  0.89495  0.83082  Biso   1.000  C
  C486     1.0000 0.10505  0.97316  0.83082  Biso   1.000  C
  H1       1.0000 0.71103  0.31401  0.34074  Biso   1.000  H
  H2       1.0000 0.68599  0.39702  0.34074  Biso   1.000  H
  H3       1.0000 0.60298  0.28897  0.34074  Biso   1.000  H
  H4       1.0000 0.37770  0.64734  0.67407  Biso   1.000  H
  H5       1.0000 0.35266  0.73035  0.67407  Biso   1.000  H
  H6       1.0000 0.26965  0.62230  0.67407  Biso   1.000  H
  H7       1.0000 0.04436  0.98068  0.00741  Biso   1.000  H
  H8       1.0000 0.01932  0.06369  0.00741  Biso   1.000  H
  H9       1.0000 0.93631  0.95564  0.00741  Biso   1.000  H
  H10      1.0000 0.73521  0.41704  0.17116  Biso   1.000  H
  H11      1.0000 0.58296  0.31817  0.17116  Biso   1.000  H
  H12      1.0000 0.68183  0.26479  0.17116  Biso   1.000  H
  H13      1.0000 0.40188  0.75037  0.50449  Biso   1.000  H
  H14      1.0000 0.24963  0.65150  0.50449  Biso   1.000  H
  H15      1.0000 0.34850  0.59812  0.50449  Biso   1.000  H
  H16      1.0000 0.06854  0.08371  0.83783  Biso   1.000  H
  H17      1.0000 0.91629  0.98484  0.83783  Biso   1.000  H
  H18      1.0000 0.01516  0.93146  0.83783  Biso   1.000  H
  H19      1.0000 0.75350  0.35986  0.51066  Biso   1.000  H
  H20      1.0000 0.64014  0.39364  0.51066  Biso   1.000  H
  H21      1.0000 0.60636  0.24650  0.51066  Biso   1.000  H
  H22      1.0000 0.42017  0.69319  0.84399  Biso   1.000  H
  H23      1.0000 0.30681  0.72697  0.84399  Biso   1.000  H
  H24      1.0000 0.27303  0.57983  0.84399  Biso   1.000  H
  H25      1.0000 0.08683  0.02653  0.17733  Biso   1.000  H
  H26      1.0000 0.97347  0.06031  0.17733  Biso   1.000  H
  H27      1.0000 0.93969  0.91317  0.17733  Biso   1.000  H
  H28      1.0000 0.85069  0.43241  0.09285  Biso   1.000  H
  H29      1.0000 0.56759  0.41828  0.09285  Biso   1.000  H
  H30      1.0000 0.58172  0.14931  0.09285  Biso   1.000  H
  H31      1.0000 0.51736  0.76574  0.42618  Biso   1.000  H
  H32      1.0000 0.23426  0.75161  0.42618  Biso   1.000  H
  H33      1.0000 0.24839  0.48264  0.42618  Biso   1.000  H
  H34      1.0000 0.18402  0.09908  0.75952  Biso   1.000  H
  H35      1.0000 0.90092  0.08495  0.75952  Biso   1.000  H
  H36      1.0000 0.91505  0.81598  0.75952  Biso   1.000  H
  H37      1.0000 0.90563  0.44970  0.40049  Biso   1.000  H
  H38      1.0000 0.55030  0.45593  0.40049  Biso   1.000  H
  H39      1.0000 0.54407  0.09437  0.40049  Biso   1.000  H
  H40      1.0000 0.57230  0.78303  0.73382  Biso   1.000  H
  H41      1.0000 0.21697  0.78926  0.73382  Biso   1.000  H
  H42      1.0000 0.21074  0.42770  0.73382  Biso   1.000  H
  H43      1.0000 0.23896  0.11637  0.06716  Biso   1.000  H
  H44      1.0000 0.88363  0.12260  0.06716  Biso   1.000  H
  H45      1.0000 0.87740  0.76104  0.06716  Biso   1.000  H
  H46      1.0000 0.08942  0.58312  0.34429  Biso   1.000  H
  H47      1.0000 0.41688  0.50630  0.34429  Biso   1.000  H
  H48      1.0000 0.49370  0.91058  0.34429  Biso   1.000  H
  H49      1.0000 0.75609  0.91645  0.67762  Biso   1.000  H
  H50      1.0000 0.08355  0.83963  0.67762  Biso   1.000  H
  H51      1.0000 0.16037  0.24391  0.67762  Biso   1.000  H
  H52      1.0000 0.42275  0.24979  0.01096  Biso   1.000  H
  H53      1.0000 0.75021  0.17297  0.01096  Biso   1.000  H
  H54      1.0000 0.82703  0.57725  0.01096  Biso   1.000  H
  H55      1.0000 0.14243  0.57799  0.33026  Biso   1.000  H
  H56      1.0000 0.42201  0.56444  0.33026  Biso   1.000  H
  H57      1.0000 0.43556  0.85757  0.33026  Biso   1.000  H
  H58      1.0000 0.80910  0.91132  0.66359  Biso   1.000  H
  H59      1.0000 0.08868  0.89777  0.66359  Biso   1.000  H
  H60      1.0000 0.10223  0.19090  0.66359  Biso   1.000  H
  H61      1.0000 0.47576  0.24466  0.99693  Biso   1.000  H
  H62      1.0000 0.75534  0.23111  0.99693  Biso   1.000  H
  H63      1.0000 0.76889  0.52424  0.99693  Biso   1.000  H
  H64      1.0000 0.24895  0.64396  0.90944  Biso   1.000  H
  H65      1.0000 0.35604  0.60499  0.90944  Biso   1.000  H
  H66      1.0000 0.39501  0.75105  0.90944  Biso   1.000  H
  H67      1.0000 0.91562  0.97729  0.24277  Biso   1.000  H
  H68      1.0000 0.02271  0.93832  0.24277  Biso   1.000  H
  H69      1.0000 0.06168  0.08438  0.24277  Biso   1.000  H
  H70      1.0000 0.58228  0.31063  0.57611  Biso   1.000  H
  H71      1.0000 0.68937  0.27166  0.57611  Biso   1.000  H
  H72      1.0000 0.72834  0.41772  0.57611  Biso   1.000  H
  H73      1.0000 0.26027  0.59248  0.28982  Biso   1.000  H
  H74      1.0000 0.40752  0.66779  0.28982  Biso   1.000  H
  H75      1.0000 0.33221  0.73973  0.28982  Biso   1.000  H
  H76      1.0000 0.92694  0.92581  0.62315  Biso   1.000  H
  H77      1.0000 0.07419  0.00112  0.62315  Biso   1.000  H
  H78      1.0000 0.99888  0.07306  0.62315  Biso   1.000  H
  H79      1.0000 0.59360  0.25915  0.95649  Biso   1.000  H
  H80      1.0000 0.74085  0.33446  0.95649  Biso   1.000  H
  H81      1.0000 0.66554  0.40640  0.95649  Biso   1.000  H
  H82      1.0000 0.29353  0.69162  0.09683  Biso   1.000  H
  H83      1.0000 0.30838  0.60191  0.09683  Biso   1.000  H
  H84      1.0000 0.39809  0.70647  0.09683  Biso   1.000  H
  H85      1.0000 0.96020  0.02495  0.43016  Biso   1.000  H
  H86      1.0000 0.97505  0.93524  0.43016  Biso   1.000  H
  H87      1.0000 0.06476  0.03980  0.43016  Biso   1.000  H
  H88      1.0000 0.62686  0.35829  0.76350  Biso   1.000  H
  H89      1.0000 0.64171  0.26858  0.76350  Biso   1.000  H
  H90      1.0000 0.73142  0.37314  0.76350  Biso   1.000  H
  H91      1.0000 0.88054  0.47659  0.91585  Biso   1.000  H
  H92      1.0000 0.52341  0.40395  0.91585  Biso   1.000  H
  H93      1.0000 0.59605  0.11946  0.91585  Biso   1.000  H
  H94      1.0000 0.54721  0.80992  0.24918  Biso   1.000  H
  H95      1.0000 0.19008  0.73728  0.24918  Biso   1.000  H
  H96      1.0000 0.26272  0.45279  0.24918  Biso   1.000  H
  H97      1.0000 0.21387  0.14326  0.58252  Biso   1.000  H
  H98      1.0000 0.85674  0.07062  0.58252  Biso   1.000  H
  H99      1.0000 0.92938  0.78613  0.58252  Biso   1.000  H
  H100     1.0000 0.98130  0.53538  0.70974  Biso   1.000  H
  H101     1.0000 0.46462  0.44592  0.70974  Biso   1.000  H
  H102     1.0000 0.55408  0.01870  0.70974  Biso   1.000  H
  H103     1.0000 0.64797  0.86871  0.04307  Biso   1.000  H
  H104     1.0000 0.13129  0.77925  0.04307  Biso   1.000  H
  H105     1.0000 0.22075  0.35203  0.04307  Biso   1.000  H
  H106     1.0000 0.31463  0.20205  0.37641  Biso   1.000  H
  H107     1.0000 0.79795  0.11259  0.37641  Biso   1.000  H
  H108     1.0000 0.88741  0.68537  0.37641  Biso   1.000  H
  H109     1.0000 0.01044  0.53090  0.93173  Biso   1.000  H
  H110     1.0000 0.46910  0.47954  0.93173  Biso   1.000  H
  H111     1.0000 0.52046  0.98956  0.93173  Biso   1.000  H
  H112     1.0000 0.67711  0.86423  0.26506  Biso   1.000  H
  H113     1.0000 0.13577  0.81287  0.26506  Biso   1.000  H
  H114     1.0000 0.18713  0.32289  0.26506  Biso   1.000  H
  H115     1.0000 0.34377  0.19757  0.59840  Biso   1.000  H
  H116     1.0000 0.80243  0.14621  0.59840  Biso   1.000  H
  H117     1.0000 0.85379  0.65623  0.59840  Biso   1.000  H
  H118     1.0000 0.98570  0.44968  0.04802  Biso   1.000  H
  H119     1.0000 0.55032  0.53602  0.04802  Biso   1.000  H
  H120     1.0000 0.46398  0.01430  0.04802  Biso   1.000  H
  H121     1.0000 0.65237  0.78301  0.38135  Biso   1.000  H
  H122     1.0000 0.21699  0.86935  0.38135  Biso   1.000  H
  H123     1.0000 0.13065  0.34763  0.38135  Biso   1.000  H
  H124     1.0000 0.31903  0.11635  0.71469  Biso   1.000  H
  H125     1.0000 0.88365  0.20269  0.71469  Biso   1.000  H
  H126     1.0000 0.79731  0.68097  0.71469  Biso   1.000  H
  H127     1.0000 0.01399  0.41744  0.96055  Biso   1.000  H
  H128     1.0000 0.58256  0.59655  0.96055  Biso   1.000  H
  H129     1.0000 0.40345  0.98601  0.96055  Biso   1.000  H
  H130     1.0000 0.68066  0.75077  0.29388  Biso   1.000  H
  H131     1.0000 0.24923  0.92988  0.29388  Biso   1.000  H
  H132     1.0000 0.07012  0.31934  0.29388  Biso   1.000  H
  H133     1.0000 0.34732  0.08411  0.62722  Biso   1.000  H
  H134     1.0000 0.91589  0.26322  0.62722  Biso   1.000  H
  H135     1.0000 0.73678  0.65268  0.62722  Biso   1.000  H
  H136     1.0000 0.11256  0.49525  0.13857  Biso   1.000  H
  H137     1.0000 0.50475  0.61731  0.13857  Biso   1.000  H
  H138     1.0000 0.38269  0.88744  0.13857  Biso   1.000  H
  H139     1.0000 0.77923  0.82858  0.47190  Biso   1.000  H
  H140     1.0000 0.17142  0.95064  0.47190  Biso   1.000  H
  H141     1.0000 0.04936  0.22077  0.47190  Biso   1.000  H
  H142     1.0000 0.44589  0.16192  0.80524  Biso   1.000  H
  H143     1.0000 0.83808  0.28398  0.80524  Biso   1.000  H
  H144     1.0000 0.71602  0.55411  0.80524  Biso   1.000  H
  H145     1.0000 0.93949  0.42423  0.50572  Biso   1.000  H
  H146     1.0000 0.57577  0.51526  0.50572  Biso   1.000  H
  H147     1.0000 0.48474  0.06051  0.50572  Biso   1.000  H
  H148     1.0000 0.60616  0.75756  0.83905  Biso   1.000  H
  H149     1.0000 0.24244  0.84859  0.83905  Biso   1.000  H
  H150     1.0000 0.15141  0.39384  0.83905  Biso   1.000  H
  H151     1.0000 0.27282  0.09090  0.17239  Biso   1.000  H
  H152     1.0000 0.90910  0.18193  0.17239  Biso   1.000  H
  H153     1.0000 0.81807  0.72718  0.17239  Biso   1.000  H
  H154     1.0000 0.93902  0.45991  0.60651  Biso   1.000  H
  H155     1.0000 0.54009  0.47911  0.60651  Biso   1.000  H
  H156     1.0000 0.52089  0.06098  0.60651  Biso   1.000  H
  H157     1.0000 0.60569  0.79324  0.93984  Biso   1.000  H
  H158     1.0000 0.20676  0.81244  0.93984  Biso   1.000  H
  H159     1.0000 0.18756  0.39431  0.93984  Biso   1.000  H
  H160     1.0000 0.27235  0.12658  0.27318  Biso   1.000  H
  H161     1.0000 0.87342  0.14578  0.27318  Biso   1.000  H
  H162     1.0000 0.85422  0.72765  0.27318  Biso   1.000  H
  H163     1.0000 0.99753  0.44068  0.61532  Biso   1.000  H
  H164     1.0000 0.55932  0.55685  0.61532  Biso   1.000  H
  H165     1.0000 0.44315  0.00247  0.61532  Biso   1.000  H
  H166     1.0000 0.66420  0.77401  0.94865  Biso   1.000  H
  H167     1.0000 0.22599  0.89018  0.94865  Biso   1.000  H
  H168     1.0000 0.10982  0.33580  0.94865  Biso   1.000  H
  H169     1.0000 0.33086  0.10735  0.28199  Biso   1.000  H
  H170     1.0000 0.89265  0.22352  0.28199  Biso   1.000  H
  H171     1.0000 0.77648  0.66914  0.28199  Biso   1.000  H
  H172     1.0000 0.96552  0.43250  0.75868  Biso   1.000  H
  H173     1.0000 0.56750  0.53302  0.75868  Biso   1.000  H
  H174     1.0000 0.46698  0.03448  0.75868  Biso   1.000  H
  H175     1.0000 0.63219  0.76583  0.09201  Biso   1.000  H
  H176     1.0000 0.23417  0.86635  0.09201  Biso   1.000  H
  H177     1.0000 0.13365  0.36781  0.09201  Biso   1.000  H
  H178     1.0000 0.29885  0.09917  0.42535  Biso   1.000  H
  H179     1.0000 0.90083  0.19969  0.42535  Biso   1.000  H
  H180     1.0000 0.80031  0.70115  0.42535  Biso   1.000  H
  H181     1.0000 0.99824  0.47719  0.71166  Biso   1.000  H
  H182     1.0000 0.52281  0.52105  0.71166  Biso   1.000  H
  H183     1.0000 0.47895  0.00176  0.71166  Biso   1.000  H
  H184     1.0000 0.66491  0.81052  0.04499  Biso   1.000  H
  H185     1.0000 0.18948  0.85438  0.04499  Biso   1.000  H
  H186     1.0000 0.14562  0.33509  0.04499  Biso   1.000  H
  H187     1.0000 0.33157  0.14386  0.37833  Biso   1.000  H
  H188     1.0000 0.85614  0.18772  0.37833  Biso   1.000  H
  H189     1.0000 0.81228  0.66843  0.37833  Biso   1.000  H
  H190     1.0000 0.05893  0.61336  0.34782  Biso   1.000  H
  H191     1.0000 0.38664  0.44557  0.34782  Biso   1.000  H
  H192     1.0000 0.55443  0.94107  0.34782  Biso   1.000  H
  H193     1.0000 0.72560  0.94669  0.68115  Biso   1.000  H
  H194     1.0000 0.05331  0.77890  0.68115  Biso   1.000  H
  H195     1.0000 0.22110  0.27440  0.68115  Biso   1.000  H
  H196     1.0000 0.39226  0.28003  0.01449  Biso   1.000  H
  H197     1.0000 0.71997  0.11224  0.01449  Biso   1.000  H
  H198     1.0000 0.88776  0.60774  0.01449  Biso   1.000  H
  H199     1.0000 0.04932  0.58676  0.51518  Biso   1.000  H
  H200     1.0000 0.41324  0.46256  0.51518  Biso   1.000  H
  H201     1.0000 0.53744  0.95068  0.51518  Biso   1.000  H
  H202     1.0000 0.71599  0.92009  0.84851  Biso   1.000  H
  H203     1.0000 0.07991  0.79589  0.84851  Biso   1.000  H
  H204     1.0000 0.20411  0.28401  0.84851  Biso   1.000  H
  H205     1.0000 0.38265  0.25343  0.18185  Biso   1.000  H
  H206     1.0000 0.74657  0.12923  0.18185  Biso   1.000  H
  H207     1.0000 0.87077  0.61735  0.18185  Biso   1.000  H
  H208     1.0000 0.99097  0.58360  0.53273  Biso   1.000  H
  H209     1.0000 0.41640  0.40737  0.53273  Biso   1.000  H
  H210     1.0000 0.59263  0.00903  0.53273  Biso   1.000  H
  H211     1.0000 0.65764  0.91693  0.86606  Biso   1.000  H
  H212     1.0000 0.08307  0.74070  0.86606  Biso   1.000  H
  H213     1.0000 0.25930  0.34236  0.86606  Biso   1.000  H
  H214     1.0000 0.32430  0.25027  0.19940  Biso   1.000  H
  H215     1.0000 0.74973  0.07404  0.19940  Biso   1.000  H
  H216     1.0000 0.92596  0.67570  0.19940  Biso   1.000  H
  H217     1.0000 0.00120  0.61050  0.36810  Biso   1.000  H
  H218     1.0000 0.38950  0.39070  0.36810  Biso   1.000  H
  H219     1.0000 0.60930  0.99880  0.36810  Biso   1.000  H
  H220     1.0000 0.66787  0.94383  0.70143  Biso   1.000  H
  H221     1.0000 0.05617  0.72403  0.70143  Biso   1.000  H
  H222     1.0000 0.27597  0.33213  0.70143  Biso   1.000  H
  H223     1.0000 0.33453  0.27717  0.03477  Biso   1.000  H
  H224     1.0000 0.72283  0.05737  0.03477  Biso   1.000  H
  H225     1.0000 0.94263  0.66547  0.03477  Biso   1.000  H
  H226     1.0000 0.02700  0.62857  0.53460  Biso   1.000  H
  H227     1.0000 0.37143  0.39843  0.53460  Biso   1.000  H
  H228     1.0000 0.60157  0.97300  0.53460  Biso   1.000  H
  H229     1.0000 0.69367  0.96190  0.86793  Biso   1.000  H
  H230     1.0000 0.03810  0.73176  0.86793  Biso   1.000  H
  H231     1.0000 0.26824  0.30633  0.86793  Biso   1.000  H
  H232     1.0000 0.36033  0.29524  0.20127  Biso   1.000  H
  H233     1.0000 0.70476  0.06510  0.20127  Biso   1.000  H
  H234     1.0000 0.93490  0.63967  0.20127  Biso   1.000  H
  H235     1.0000 0.24370  0.76230  0.85465  Biso   1.000  H
  H236     1.0000 0.23770  0.48140  0.85465  Biso   1.000  H
  H237     1.0000 0.51860  0.75630  0.85465  Biso   1.000  H
  H238     1.0000 0.91037  0.09563  0.18798  Biso   1.000  H
  H239     1.0000 0.90437  0.81473  0.18798  Biso   1.000  H
  H240     1.0000 0.18527  0.08963  0.18798  Biso   1.000  H
  H241     1.0000 0.57703  0.42897  0.52132  Biso   1.000  H
  H242     1.0000 0.57103  0.14807  0.52132  Biso   1.000  H
  H243     1.0000 0.85193  0.42297  0.52132  Biso   1.000  H
  H244     1.0000 0.30071  0.81061  0.93017  Biso   1.000  H
  H245     1.0000 0.18939  0.49010  0.93017  Biso   1.000  H
  H246     1.0000 0.50990  0.69929  0.93017  Biso   1.000  H
  H247     1.0000 0.96738  0.14394  0.26350  Biso   1.000  H
  H248     1.0000 0.85606  0.82343  0.26350  Biso   1.000  H
  H249     1.0000 0.17657  0.03262  0.26350  Biso   1.000  H
  H250     1.0000 0.63404  0.47728  0.59684  Biso   1.000  H
  H251     1.0000 0.52272  0.15677  0.59684  Biso   1.000  H
  H252     1.0000 0.84323  0.36596  0.59684  Biso   1.000  H
  H253     1.0000 0.30239  0.80025  0.73869  Biso   1.000  H
  H254     1.0000 0.19975  0.50214  0.73869  Biso   1.000  H
  H255     1.0000 0.49786  0.69761  0.73869  Biso   1.000  H
  H256     1.0000 0.96906  0.13358  0.07202  Biso   1.000  H
  H257     1.0000 0.86642  0.83547  0.07202  Biso   1.000  H
  H258     1.0000 0.16453  0.03094  0.07202  Biso   1.000  H
  H259     1.0000 0.63572  0.46692  0.40536  Biso   1.000  H
  H260     1.0000 0.53308  0.16881  0.40536  Biso   1.000  H
  H261     1.0000 0.83119  0.36428  0.40536  Biso   1.000  H
  H262     1.0000 0.32266  0.78670  0.87898  Biso   1.000  H
  H263     1.0000 0.21330  0.53596  0.87898  Biso   1.000  H
  H264     1.0000 0.46404  0.67734  0.87898  Biso   1.000  H
  H265     1.0000 0.98933  0.12003  0.21231  Biso   1.000  H
  H266     1.0000 0.87997  0.86929  0.21231  Biso   1.000  H
  H267     1.0000 0.13071  0.01067  0.21231  Biso   1.000  H
  H268     1.0000 0.65599  0.45337  0.54565  Biso   1.000  H
  H269     1.0000 0.54663  0.20263  0.54565  Biso   1.000  H
  H270     1.0000 0.79737  0.34401  0.54565  Biso   1.000  H
  H271     1.0000 0.23633  0.71485  0.03540  Biso   1.000  H
  H272     1.0000 0.28515  0.52148  0.03540  Biso   1.000  H
  H273     1.0000 0.47852  0.76367  0.03540  Biso   1.000  H
  H274     1.0000 0.90300  0.04818  0.36873  Biso   1.000  H
  H275     1.0000 0.95182  0.85481  0.36873  Biso   1.000  H
  H276     1.0000 0.14519  0.09700  0.36873  Biso   1.000  H
  H277     1.0000 0.56966  0.38152  0.70207  Biso   1.000  H
  H278     1.0000 0.61848  0.18815  0.70207  Biso   1.000  H
  H279     1.0000 0.81185  0.43034  0.70207  Biso   1.000  H
  H280     1.0000 0.25581  0.75889  0.10667  Biso   1.000  H
  H281     1.0000 0.24111  0.49692  0.10667  Biso   1.000  H
  H282     1.0000 0.50308  0.74419  0.10667  Biso   1.000  H
  H283     1.0000 0.92248  0.09222  0.44000  Biso   1.000  H
  H284     1.0000 0.90778  0.83025  0.44000  Biso   1.000  H
  H285     1.0000 0.16975  0.07752  0.44000  Biso   1.000  H
  H286     1.0000 0.58914  0.42556  0.77334  Biso   1.000  H
  H287     1.0000 0.57444  0.16359  0.77334  Biso   1.000  H
  H288     1.0000 0.83641  0.41086  0.77334  Biso   1.000  H
  H289     1.0000 0.28328  0.74001  0.06665  Biso   1.000  H
  H290     1.0000 0.25999  0.54327  0.06665  Biso   1.000  H
  H291     1.0000 0.45673  0.71672  0.06665  Biso   1.000  H
  H292     1.0000 0.94995  0.07334  0.39998  Biso   1.000  H
  H293     1.0000 0.92666  0.87660  0.39998  Biso   1.000  H
  H294     1.0000 0.12340  0.05005  0.39998  Biso   1.000  H
  H295     1.0000 0.61661  0.40668  0.73332  Biso   1.000  H
  H296     1.0000 0.59332  0.20994  0.73332  Biso   1.000  H
  H297     1.0000 0.79006  0.38339  0.73332  Biso   1.000  H
  H298     1.0000 0.18852  0.63435  0.48399  Biso   1.000  H
  H299     1.0000 0.36565  0.55417  0.48399  Biso   1.000  H
  H300     1.0000 0.44583  0.81148  0.48399  Biso   1.000  H
  H301     1.0000 0.85519  0.96768  0.81732  Biso   1.000  H
  H302     1.0000 0.03232  0.88750  0.81732  Biso   1.000  H
  H303     1.0000 0.11250  0.14481  0.81732  Biso   1.000  H
  H304     1.0000 0.52185  0.30102  0.15066  Biso   1.000  H
  H305     1.0000 0.69898  0.22084  0.15066  Biso   1.000  H
  H306     1.0000 0.77916  0.47815  0.15066  Biso   1.000  H
  H307     1.0000 0.15941  0.66296  0.63543  Biso   1.000  H
  H308     1.0000 0.33704  0.49645  0.63543  Biso   1.000  H
  H309     1.0000 0.50355  0.84059  0.63543  Biso   1.000  H
  H310     1.0000 0.82608  0.99629  0.96876  Biso   1.000  H
  H311     1.0000 0.00371  0.82978  0.96876  Biso   1.000  H
  H312     1.0000 0.17022  0.17392  0.96876  Biso   1.000  H
  H313     1.0000 0.49274  0.32963  0.30210  Biso   1.000  H
  H314     1.0000 0.67037  0.16312  0.30210  Biso   1.000  H
  H315     1.0000 0.83688  0.50726  0.30210  Biso   1.000  H
  H316     1.0000 0.13867  0.63938  0.46876  Biso   1.000  H
  H317     1.0000 0.36062  0.49929  0.46876  Biso   1.000  H
  H318     1.0000 0.50071  0.86133  0.46876  Biso   1.000  H
  H319     1.0000 0.80534  0.97271  0.80209  Biso   1.000  H
  H320     1.0000 0.02729  0.83262  0.80209  Biso   1.000  H
  H321     1.0000 0.16738  0.19466  0.80209  Biso   1.000  H
  H322     1.0000 0.47200  0.30605  0.13543  Biso   1.000  H
  H323     1.0000 0.69395  0.16596  0.13543  Biso   1.000  H
  H324     1.0000 0.83404  0.52800  0.13543  Biso   1.000  H
  H325     1.0000 0.16188  0.68635  0.46629  Biso   1.000  H
  H326     1.0000 0.31365  0.47553  0.46629  Biso   1.000  H
  H327     1.0000 0.52447  0.83812  0.46629  Biso   1.000  H
  H328     1.0000 0.82855  0.01968  0.79962  Biso   1.000  H
  H329     1.0000 0.98032  0.80886  0.79962  Biso   1.000  H
  H330     1.0000 0.19114  0.17145  0.79962  Biso   1.000  H
  H331     1.0000 0.49521  0.35302  0.13296  Biso   1.000  H
  H332     1.0000 0.64698  0.14220  0.13296  Biso   1.000  H
  H333     1.0000 0.85780  0.50479  0.13296  Biso   1.000  H
  H334     1.0000 0.18085  0.65446  0.23774  Biso   1.000  H
  H335     1.0000 0.34554  0.52639  0.23774  Biso   1.000  H
  H336     1.0000 0.47361  0.81915  0.23774  Biso   1.000  H
  H337     1.0000 0.84752  0.98779  0.57107  Biso   1.000  H
  H338     1.0000 0.01221  0.85972  0.57107  Biso   1.000  H
  H339     1.0000 0.14028  0.15248  0.57107  Biso   1.000  H
  H340     1.0000 0.51418  0.32113  0.90441  Biso   1.000  H
  H341     1.0000 0.67887  0.19306  0.90441  Biso   1.000  H
  H342     1.0000 0.80694  0.48582  0.90441  Biso   1.000  H
  H343     1.0000 0.22580  0.66607  0.27146  Biso   1.000  H
  H344     1.0000 0.33393  0.55973  0.27146  Biso   1.000  H
  H345     1.0000 0.44027  0.77420  0.27146  Biso   1.000  H
  H346     1.0000 0.89247  0.99940  0.60479  Biso   1.000  H
  H347     1.0000 0.00060  0.89306  0.60479  Biso   1.000  H
  H348     1.0000 0.10694  0.10753  0.60479  Biso   1.000  H
  H349     1.0000 0.55913  0.33274  0.93813  Biso   1.000  H
  H350     1.0000 0.66726  0.22640  0.93813  Biso   1.000  H
  H351     1.0000 0.77360  0.44087  0.93813  Biso   1.000  H
  H352     1.0000 0.21305  0.69921  0.28495  Biso   1.000  H
  H353     1.0000 0.30079  0.51384  0.28495  Biso   1.000  H
  H354     1.0000 0.48616  0.78695  0.28495  Biso   1.000  H
  H355     1.0000 0.87972  0.03254  0.61828  Biso   1.000  H
  H356     1.0000 0.96746  0.84717  0.61828  Biso   1.000  H
  H357     1.0000 0.15283  0.12028  0.61828  Biso   1.000  H
  H358     1.0000 0.54638  0.36588  0.95162  Biso   1.000  H
  H359     1.0000 0.63412  0.18051  0.95162  Biso   1.000  H
  H360     1.0000 0.81949  0.45362  0.95162  Biso   1.000  H
  H361     1.0000 0.76172  0.47012  0.45817  Biso   1.000  H
  H362     1.0000 0.52988  0.29160  0.45817  Biso   1.000  H
  H363     1.0000 0.70840  0.23828  0.45817  Biso   1.000  H
  H364     1.0000 0.42839  0.80345  0.79150  Biso   1.000  H
  H365     1.0000 0.19655  0.62493  0.79150  Biso   1.000  H
  H366     1.0000 0.37507  0.57161  0.79150  Biso   1.000  H
  H367     1.0000 0.09505  0.13679  0.12484  Biso   1.000  H
  H368     1.0000 0.86321  0.95827  0.12484  Biso   1.000  H
  H369     1.0000 0.04173  0.90495  0.12484  Biso   1.000  H
  H370     1.0000 0.72478  0.50176  0.45566  Biso   1.000  H
  H371     1.0000 0.49824  0.22302  0.45566  Biso   1.000  H
  H372     1.0000 0.77698  0.27522  0.45566  Biso   1.000  H
  H373     1.0000 0.39145  0.83509  0.78899  Biso   1.000  H
  H374     1.0000 0.16491  0.55635  0.78899  Biso   1.000  H
  H375     1.0000 0.44365  0.60855  0.78899  Biso   1.000  H
  H376     1.0000 0.05811  0.16843  0.12233  Biso   1.000  H
  H377     1.0000 0.83157  0.88969  0.12233  Biso   1.000  H
  H378     1.0000 0.11031  0.94189  0.12233  Biso   1.000  H
  H379     1.0000 0.76631  0.52119  0.35923  Biso   1.000  H
  H380     1.0000 0.47881  0.24512  0.35923  Biso   1.000  H
  H381     1.0000 0.75488  0.23369  0.35923  Biso   1.000  H
  H382     1.0000 0.43298  0.85452  0.69256  Biso   1.000  H
  H383     1.0000 0.14548  0.57845  0.69256  Biso   1.000  H
  H384     1.0000 0.42155  0.56702  0.69256  Biso   1.000  H
  H385     1.0000 0.09964  0.18786  0.02590  Biso   1.000  H
  H386     1.0000 0.81214  0.91179  0.02590  Biso   1.000  H
  H387     1.0000 0.08821  0.90036  0.02590  Biso   1.000  H
  H388     1.0000 0.76340  0.53882  0.53407  Biso   1.000  H
  H389     1.0000 0.46118  0.22458  0.53407  Biso   1.000  H
  H390     1.0000 0.77542  0.23660  0.53407  Biso   1.000  H
  H391     1.0000 0.43007  0.87215  0.86740  Biso   1.000  H
  H392     1.0000 0.12785  0.55791  0.86740  Biso   1.000  H
  H393     1.0000 0.44209  0.56993  0.86740  Biso   1.000  H
  H394     1.0000 0.09673  0.20549  0.20074  Biso   1.000  H
  H395     1.0000 0.79451  0.89125  0.20074  Biso   1.000  H
  H396     1.0000 0.10875  0.90327  0.20074  Biso   1.000  H
  H397     1.0000 0.80387  0.52427  0.70088  Biso   1.000  H
  H398     1.0000 0.47573  0.27960  0.70088  Biso   1.000  H
  H399     1.0000 0.72040  0.19613  0.70088  Biso   1.000  H
  H400     1.0000 0.47054  0.85760  0.03421  Biso   1.000  H
  H401     1.0000 0.14240  0.61293  0.03421  Biso   1.000  H
  H402     1.0000 0.38707  0.52946  0.03421  Biso   1.000  H
  H403     1.0000 0.13720  0.19094  0.36755  Biso   1.000  H
  H404     1.0000 0.80906  0.94627  0.36755  Biso   1.000  H
  H405     1.0000 0.05373  0.86280  0.36755  Biso   1.000  H
  H406     1.0000 0.81905  0.52394  0.51685  Biso   1.000  H
  H407     1.0000 0.47606  0.29511  0.51685  Biso   1.000  H
  H408     1.0000 0.70489  0.18095  0.51685  Biso   1.000  H
  H409     1.0000 0.48572  0.85727  0.85018  Biso   1.000  H
  H410     1.0000 0.14273  0.62844  0.85018  Biso   1.000  H
  H411     1.0000 0.37156  0.51428  0.85018  Biso   1.000  H
  H412     1.0000 0.15238  0.19061  0.18352  Biso   1.000  H
  H413     1.0000 0.80939  0.96178  0.18352  Biso   1.000  H
  H414     1.0000 0.03822  0.84762  0.18352  Biso   1.000  H
  H415     1.0000 0.80823  0.48745  0.63829  Biso   1.000  H
  H416     1.0000 0.51255  0.32078  0.63829  Biso   1.000  H
  H417     1.0000 0.67922  0.19177  0.63829  Biso   1.000  H
  H418     1.0000 0.47490  0.82078  0.97162  Biso   1.000  H
  H419     1.0000 0.17922  0.65411  0.97162  Biso   1.000  H
  H420     1.0000 0.34589  0.52510  0.97162  Biso   1.000  H
  H421     1.0000 0.14156  0.15412  0.30496  Biso   1.000  H
  H422     1.0000 0.84588  0.98745  0.30496  Biso   1.000  H
  H423     1.0000 0.01255  0.85844  0.30496  Biso   1.000  H
  H424     1.0000 0.70124  0.50433  0.00412  Biso   1.000  H
  H425     1.0000 0.49567  0.19691  0.00412  Biso   1.000  H
  H426     1.0000 0.80309  0.29876  0.00412  Biso   1.000  H
  H427     1.0000 0.36791  0.83766  0.33745  Biso   1.000  H
  H428     1.0000 0.16234  0.53024  0.33745  Biso   1.000  H
  H429     1.0000 0.46976  0.63209  0.33745  Biso   1.000  H
  H430     1.0000 0.03457  0.17100  0.67079  Biso   1.000  H
  H431     1.0000 0.82900  0.86358  0.67079  Biso   1.000  H
  H432     1.0000 0.13642  0.96543  0.67079  Biso   1.000  H
  H433     1.0000 0.63955  0.47592  0.07053  Biso   1.000  H
  H434     1.0000 0.52408  0.16363  0.07053  Biso   1.000  H
  H435     1.0000 0.83637  0.36045  0.07053  Biso   1.000  H
  H436     1.0000 0.30622  0.80925  0.40386  Biso   1.000  H
  H437     1.0000 0.19075  0.49696  0.40386  Biso   1.000  H
  H438     1.0000 0.50304  0.69378  0.40386  Biso   1.000  H
  H439     1.0000 0.97288  0.14259  0.73720  Biso   1.000  H
  H440     1.0000 0.85741  0.83030  0.73720  Biso   1.000  H
  H441     1.0000 0.16970  0.02712  0.73720  Biso   1.000  H
  H442     1.0000 0.63148  0.43432  0.99768  Biso   1.000  H
  H443     1.0000 0.56568  0.19716  0.99768  Biso   1.000  H
  H444     1.0000 0.80284  0.36852  0.99768  Biso   1.000  H
  H445     1.0000 0.29815  0.76765  0.33101  Biso   1.000  H
  H446     1.0000 0.23235  0.53049  0.33101  Biso   1.000  H
  H447     1.0000 0.46951  0.70185  0.33101  Biso   1.000  H
  H448     1.0000 0.96481  0.10099  0.66435  Biso   1.000  H
  H449     1.0000 0.89901  0.86383  0.66435  Biso   1.000  H
  H450     1.0000 0.13617  0.03519  0.66435  Biso   1.000  H
  H451     1.0000 0.64438  0.47159  0.87523  Biso   1.000  H
  H452     1.0000 0.52841  0.17279  0.87523  Biso   1.000  H
  H453     1.0000 0.82721  0.35562  0.87523  Biso   1.000  H
  H454     1.0000 0.31105  0.80492  0.20856  Biso   1.000  H
  H455     1.0000 0.19508  0.50612  0.20856  Biso   1.000  H
  H456     1.0000 0.49388  0.68895  0.20856  Biso   1.000  H
  H457     1.0000 0.97771  0.13826  0.54190  Biso   1.000  H
  H458     1.0000 0.86174  0.83946  0.54190  Biso   1.000  H
  H459     1.0000 0.16054  0.02229  0.54190  Biso   1.000  H
  H460     1.0000 0.72160  0.47295  0.17822  Biso   1.000  H
  H461     1.0000 0.52705  0.24865  0.17822  Biso   1.000  H
  H462     1.0000 0.75135  0.27840  0.17822  Biso   1.000  H
  H463     1.0000 0.38827  0.80628  0.51155  Biso   1.000  H
  H464     1.0000 0.19372  0.58198  0.51155  Biso   1.000  H
  H465     1.0000 0.41802  0.61173  0.51155  Biso   1.000  H
  H466     1.0000 0.05493  0.13962  0.84489  Biso   1.000  H
  H467     1.0000 0.86038  0.91532  0.84489  Biso   1.000  H
  H468     1.0000 0.08468  0.94507  0.84489  Biso   1.000  H
  H469     1.0000 0.67690  0.43651  0.18407  Biso   1.000  H
  H470     1.0000 0.56349  0.24039  0.18407  Biso   1.000  H
  H471     1.0000 0.75961  0.32310  0.18407  Biso   1.000  H
  H472     1.0000 0.34357  0.76984  0.51740  Biso   1.000  H
  H473     1.0000 0.23016  0.57372  0.51740  Biso   1.000  H
  H474     1.0000 0.42628  0.65643  0.51740  Biso   1.000  H
  H475     1.0000 0.01023  0.10318  0.85074  Biso   1.000  H
  H476     1.0000 0.89682  0.90706  0.85074  Biso   1.000  H
  H477     1.0000 0.09294  0.98977  0.85074  Biso   1.000  H
  H478     1.0000 0.68674  0.47925  0.24863  Biso   1.000  H
  H479     1.0000 0.52075  0.20749  0.24863  Biso   1.000  H
  H480     1.0000 0.79251  0.31326  0.24863  Biso   1.000  H
  H481     1.0000 0.35341  0.81258  0.58196  Biso   1.000  H
  H482     1.0000 0.18742  0.54082  0.58196  Biso   1.000  H
  H483     1.0000 0.45918  0.64659  0.58196  Biso   1.000  H
  H484     1.0000 0.02007  0.14592  0.91530  Biso   1.000  H
  H485     1.0000 0.85408  0.87416  0.91530  Biso   1.000  H
  H486     1.0000 0.12584  0.97993  0.91530  Biso   1.000  H
