data_Py-2PE-COF
_audit_creation_date              0000-00-00
_audit_creation_method            'LanYouShi'
_symmetry_space_group_name_H-M    'P1'
_cell_length_a                    42.2601013
_cell_length_b                    45.0125999
_cell_length_c                    3.9075999
_cell_angle_alpha                 90.0000000
_cell_angle_beta                  90.0000000
_cell_angle_gamma                 90.0000000
loop_
_atom_site_label
_atom_site_type_symbol
_atom_site_fract_x
_atom_site_fract_y
_atom_site_fract_z
_atom_site_U_iso_or_equiv
_atom_site_adp_type
_atom_site_occupancy
        C1          C  0.5341300  0.5273522 -0.0774188    0.00000       Uiso       1.00
        C2          C  0.4834842  0.5533744 -0.1433343    0.00000       Uiso       1.00
        C3          C  0.4324416  0.5277085 -0.0227984    0.00000       Uiso       1.00
        C4          C  0.4130247  0.5536364 -0.0066884    0.00000       Uiso       1.00
        C5          C  0.3830104  0.5543928 -0.1703438    0.00000       Uiso       1.00
        C6          C  0.3632308  0.5794671 -0.1516074    0.00000       Uiso       1.00
        C7          C  0.3730406  0.6052247  0.0231615    0.00000       Uiso       1.00
        C8          C  0.4028584  0.6049818  0.1862987    0.00000       Uiso       1.00
        C9          C  0.4220120  0.5794448  0.1767229    0.00000       Uiso       1.00
        H1          H  0.4727409  0.5731861 -0.1906028    0.00000       Uiso       1.00
        H2          H  0.3751439  0.5365781 -0.3090374    0.00000       Uiso       1.00
        H3          H  0.3416625  0.5788743 -0.2708627    0.00000       Uiso       1.00
        H4          H  0.4108202  0.6230982  0.3177967    0.00000       Uiso       1.00
        H5          H  0.4427584  0.5799732  0.3091716    0.00000       Uiso       1.00
       C10          C  0.0341304  0.0273521  0.1411710    0.00000       Uiso       1.00
       C11          C  0.9834839  0.0533743  0.2070863    0.00000       Uiso       1.00
       C12          C  0.9324412  0.0277084  0.0865505    0.00000       Uiso       1.00
       C13          C  0.9130243  0.0536364  0.0704399    0.00000       Uiso       1.00
       C14          C  0.9220117  0.0794447 -0.1129718    0.00000       Uiso       1.00
       C15          C  0.9028581  0.1049817 -0.1225483    0.00000       Uiso       1.00
       C16          C  0.8730402  0.1052247  0.0405888    0.00000       Uiso       1.00
       C17          C  0.8632304  0.0794670  0.2153581    0.00000       Uiso       1.00
       C18          C  0.8830100  0.0543927  0.2340951    0.00000       Uiso       1.00
        H6          H  0.9727405  0.0731860  0.2543544    0.00000       Uiso       1.00
        H7          H  0.9427580  0.0799731 -0.2454205    0.00000       Uiso       1.00
        H8          H  0.9108199  0.1230980 -0.2540467    0.00000       Uiso       1.00
        H9          H  0.8416621  0.0788743  0.3346132    0.00000       Uiso       1.00
       H10          H  0.8751435  0.0365781  0.3727888    0.00000       Uiso       1.00
       C19          C  0.1689730  0.8226154 -0.0576919    0.00000       Uiso       1.00
       C20          C  0.1639808  0.7931504 -0.1724930    0.00000       Uiso       1.00
       C21          C  0.1879538  0.7715778 -0.1464611    0.00000       Uiso       1.00
       C22          C  0.2176066  0.7790815 -0.0051034    0.00000       Uiso       1.00
       C23          C  0.2229681  0.8083707  0.1093184    0.00000       Uiso       1.00
       C24          C  0.1988978  0.8298447  0.0831971    0.00000       Uiso       1.00
       C25          C  0.2398153  0.7591451  0.0201346    0.00000       Uiso       1.00
       C26          C  0.2601839  0.7408549  0.0436136    0.00000       Uiso       1.00
       C27          C  0.2823926  0.7209185  0.0688516    0.00000       Uiso       1.00
       C28          C  0.3120452  0.7284224  0.2102101    0.00000       Uiso       1.00
       C29          C  0.3360184  0.7068499  0.2362421    0.00000       Uiso       1.00
       C30          C  0.3310263  0.6773847  0.1214406    0.00000       Uiso       1.00
       C31          C  0.3011016  0.6701555 -0.0194491    0.00000       Uiso       1.00
       C32          C  0.2770311  0.6916293 -0.0455707    0.00000       Uiso       1.00
       H11          H  0.1427288  0.7870231 -0.2766936    0.00000       Uiso       1.00
       H12          H  0.1834641  0.7504663 -0.2320209    0.00000       Uiso       1.00
       H13          H  0.2443031  0.8143973  0.2130747    0.00000       Uiso       1.00
       H14          H  0.2035847  0.8508605  0.1690246    0.00000       Uiso       1.00
       H15          H  0.3165350  0.7495337  0.2957703    0.00000       Uiso       1.00
       H16          H  0.3572704  0.7129770  0.3404431    0.00000       Uiso       1.00
       H17          H  0.2964147  0.6491395 -0.1052768    0.00000       Uiso       1.00
       H18          H  0.2556962  0.6856027 -0.1493276    0.00000       Uiso       1.00
       C33          C  0.1444318  0.8436777 -0.0860436    0.00000       Uiso       1.00
        N1          N  0.1472694  0.8714878  0.0414854    0.00000       Uiso       1.00
        N2          N  0.3527300  0.6285124  0.0222644    0.00000       Uiso       1.00
       C34          C  0.3555676  0.6563225  0.1497927    0.00000       Uiso       1.00
       H19          H  0.8761430  0.1623715 -0.2047793    0.00000       Uiso       1.00
       H20          H  0.6238559  0.3376286  0.2685281    0.00000       Uiso       1.00
       C35          C  0.4658692  0.4726480 -0.0774188    0.00000       Uiso       1.00
       C36          C  0.5165149  0.4466258 -0.1433343    0.00000       Uiso       1.00
       C37          C  0.5675575  0.4722917 -0.0227984    0.00000       Uiso       1.00
       C38          C  0.5869745  0.4463637 -0.0066884    0.00000       Uiso       1.00
       C39          C  0.6169888  0.4456074 -0.1703438    0.00000       Uiso       1.00
       C40          C  0.6367684  0.4205332 -0.1516074    0.00000       Uiso       1.00
       C41          C  0.6269586  0.3947755  0.0231615    0.00000       Uiso       1.00
       C42          C  0.5971407  0.3950184  0.1862987    0.00000       Uiso       1.00
       C43          C  0.5779872  0.4205554  0.1767229    0.00000       Uiso       1.00
       H21          H  0.5272582  0.4268141 -0.1906028    0.00000       Uiso       1.00
       H22          H  0.6248552  0.4634221 -0.3090374    0.00000       Uiso       1.00
       H23          H  0.6583367  0.4211259 -0.2708627    0.00000       Uiso       1.00
       H24          H  0.5891789  0.3769020  0.3177967    0.00000       Uiso       1.00
       H25          H  0.5572408  0.4200270  0.3091716    0.00000       Uiso       1.00
       C44          C  0.9658688  0.9726481  0.1411710    0.00000       Uiso       1.00
       C45          C  0.0165153  0.9466259  0.2070863    0.00000       Uiso       1.00
       C46          C  0.0675580  0.9722919  0.0865505    0.00000       Uiso       1.00
       C47          C  0.0869749  0.9463639  0.0704399    0.00000       Uiso       1.00
       C48          C  0.0779875  0.9205556 -0.1129718    0.00000       Uiso       1.00
       C49          C  0.0971410  0.8950185 -0.1225483    0.00000       Uiso       1.00
       C50          C  0.1269589  0.8947755  0.0405888    0.00000       Uiso       1.00
       C51          C  0.1367688  0.9205332  0.2153581    0.00000       Uiso       1.00
       C52          C  0.1169892  0.9456075  0.2340951    0.00000       Uiso       1.00
       H26          H  0.0272586  0.9268141  0.2543544    0.00000       Uiso       1.00
       H27          H  0.0572411  0.9200272 -0.2454205    0.00000       Uiso       1.00
       H28          H  0.0891792  0.8769022 -0.2540467    0.00000       Uiso       1.00
       H29          H  0.1583371  0.9211258  0.3346132    0.00000       Uiso       1.00
       H30          H  0.1248556  0.9634221  0.3727888    0.00000       Uiso       1.00
       C53          C  0.8310262  0.1773847 -0.0576919    0.00000       Uiso       1.00
       C54          C  0.8360183  0.2068499 -0.1724930    0.00000       Uiso       1.00
       C55          C  0.8120453  0.2284225 -0.1464611    0.00000       Uiso       1.00
       C56          C  0.7823926  0.2209187 -0.0051034    0.00000       Uiso       1.00
       C57          C  0.7770310  0.1916294  0.1093184    0.00000       Uiso       1.00
       C58          C  0.8011014  0.1701556  0.0831971    0.00000       Uiso       1.00
       C59          C  0.7601839  0.2408551  0.0201346    0.00000       Uiso       1.00
       C60          C  0.7398153  0.2591453  0.0436136    0.00000       Uiso       1.00
       C61          C  0.7176066  0.2790816  0.0688516    0.00000       Uiso       1.00
       C62          C  0.6879539  0.2715778  0.2102101    0.00000       Uiso       1.00
       C63          C  0.6639808  0.2931503  0.2362421    0.00000       Uiso       1.00
       C64          C  0.6689729  0.3226155  0.1214406    0.00000       Uiso       1.00
       C65          C  0.6988976  0.3298447 -0.0194491    0.00000       Uiso       1.00
       C66          C  0.7229680  0.3083709 -0.0455707    0.00000       Uiso       1.00
       H31          H  0.8572704  0.2129771 -0.2766936    0.00000       Uiso       1.00
       H32          H  0.8165351  0.2495338 -0.2320209    0.00000       Uiso       1.00
       H33          H  0.7556961  0.1856029  0.2130747    0.00000       Uiso       1.00
       H34          H  0.7964144  0.1491396  0.1690246    0.00000       Uiso       1.00
       H35          H  0.6834642  0.2504665  0.2957703    0.00000       Uiso       1.00
       H36          H  0.6427288  0.2870232  0.3404431    0.00000       Uiso       1.00
       H37          H  0.7035844  0.3508607 -0.1052768    0.00000       Uiso       1.00
       H38          H  0.7443030  0.3143975 -0.1493276    0.00000       Uiso       1.00
       C67          C  0.8555674  0.1563225 -0.0860436    0.00000       Uiso       1.00
        N3          N  0.8527297  0.1285124  0.0414854    0.00000       Uiso       1.00
        N4          N  0.6472691  0.3714878  0.0222644    0.00000       Uiso       1.00
       C68          C  0.6444316  0.3436777  0.1497927    0.00000       Uiso       1.00
       H39          H  0.1238561  0.8376287 -0.2047793    0.00000       Uiso       1.00
       H40          H  0.3761432  0.6623716  0.2685281    0.00000       Uiso       1.00
       C69          C  0.5341300  0.4726480 -0.0774188    0.00000       Uiso       1.00
       C70          C  0.4834842  0.4466258 -0.1433343    0.00000       Uiso       1.00
       C71          C  0.4324416  0.4722917 -0.0227984    0.00000       Uiso       1.00
       C72          C  0.4130247  0.4463637 -0.0066884    0.00000       Uiso       1.00
       C73          C  0.3830104  0.4456074 -0.1703438    0.00000       Uiso       1.00
       C74          C  0.3632308  0.4205332 -0.1516074    0.00000       Uiso       1.00
       C75          C  0.3730406  0.3947755  0.0231615    0.00000       Uiso       1.00
       C76          C  0.4028584  0.3950184  0.1862987    0.00000       Uiso       1.00
       C77          C  0.4220120  0.4205554  0.1767229    0.00000       Uiso       1.00
       H41          H  0.4727409  0.4268141 -0.1906028    0.00000       Uiso       1.00
       H42          H  0.3751439  0.4634221 -0.3090374    0.00000       Uiso       1.00
       H43          H  0.3416625  0.4211259 -0.2708627    0.00000       Uiso       1.00
       H44          H  0.4108202  0.3769020  0.3177967    0.00000       Uiso       1.00
       H45          H  0.4427584  0.4200270  0.3091716    0.00000       Uiso       1.00
       C78          C  0.0341304  0.9726481  0.1411710    0.00000       Uiso       1.00
       C79          C  0.9834839  0.9466259  0.2070863    0.00000       Uiso       1.00
       C80          C  0.9324412  0.9722919  0.0865505    0.00000       Uiso       1.00
       C81          C  0.9130243  0.9463639  0.0704399    0.00000       Uiso       1.00
       C82          C  0.9220117  0.9205556 -0.1129718    0.00000       Uiso       1.00
       C83          C  0.9028581  0.8950185 -0.1225483    0.00000       Uiso       1.00
       C84          C  0.8730402  0.8947755  0.0405888    0.00000       Uiso       1.00
       C85          C  0.8632304  0.9205332  0.2153581    0.00000       Uiso       1.00
       C86          C  0.8830100  0.9456075  0.2340951    0.00000       Uiso       1.00
       H46          H  0.9727405  0.9268141  0.2543544    0.00000       Uiso       1.00
       H47          H  0.9427580  0.9200272 -0.2454205    0.00000       Uiso       1.00
       H48          H  0.9108199  0.8769022 -0.2540467    0.00000       Uiso       1.00
       H49          H  0.8416621  0.9211258  0.3346132    0.00000       Uiso       1.00
       H50          H  0.8751435  0.9634221  0.3727888    0.00000       Uiso       1.00
       C87          C  0.1689730  0.1773847 -0.0576919    0.00000       Uiso       1.00
       C88          C  0.1639808  0.2068499 -0.1724930    0.00000       Uiso       1.00
       C89          C  0.1879538  0.2284225 -0.1464611    0.00000       Uiso       1.00
       C90          C  0.2176066  0.2209187 -0.0051034    0.00000       Uiso       1.00
       C91          C  0.2229681  0.1916294  0.1093184    0.00000       Uiso       1.00
       C92          C  0.1988978  0.1701556  0.0831971    0.00000       Uiso       1.00
       C93          C  0.2398153  0.2408551  0.0201346    0.00000       Uiso       1.00
       C94          C  0.2601839  0.2591453  0.0436136    0.00000       Uiso       1.00
       C95          C  0.2823926  0.2790816  0.0688516    0.00000       Uiso       1.00
       C96          C  0.3120452  0.2715778  0.2102101    0.00000       Uiso       1.00
       C97          C  0.3360184  0.2931503  0.2362421    0.00000       Uiso       1.00
       C98          C  0.3310263  0.3226155  0.1214406    0.00000       Uiso       1.00
       C99          C  0.3011016  0.3298447 -0.0194491    0.00000       Uiso       1.00
      C100          C  0.2770311  0.3083709 -0.0455707    0.00000       Uiso       1.00
       H51          H  0.1427288  0.2129771 -0.2766936    0.00000       Uiso       1.00
       H52          H  0.1834641  0.2495338 -0.2320209    0.00000       Uiso       1.00
       H53          H  0.2443031  0.1856029  0.2130747    0.00000       Uiso       1.00
       H54          H  0.2035847  0.1491396  0.1690246    0.00000       Uiso       1.00
       H55          H  0.3165350  0.2504665  0.2957703    0.00000       Uiso       1.00
       H56          H  0.3572704  0.2870232  0.3404431    0.00000       Uiso       1.00
       H57          H  0.2964147  0.3508607 -0.1052768    0.00000       Uiso       1.00
       H58          H  0.2556962  0.3143975 -0.1493276    0.00000       Uiso       1.00
      C101          C  0.1444318  0.1563225 -0.0860436    0.00000       Uiso       1.00
        N5          N  0.1472694  0.1285124  0.0414854    0.00000       Uiso       1.00
        N6          N  0.3527300  0.3714878  0.0222644    0.00000       Uiso       1.00
      C102          C  0.3555676  0.3436777  0.1497927    0.00000       Uiso       1.00
       H59          H  0.8761430  0.8376287 -0.2047793    0.00000       Uiso       1.00
       H60          H  0.6238559  0.6623716  0.2685281    0.00000       Uiso       1.00
      C103          C  0.4658692  0.5273522 -0.0774188    0.00000       Uiso       1.00
      C104          C  0.5165149  0.5533744 -0.1433343    0.00000       Uiso       1.00
      C105          C  0.5675575  0.5277085 -0.0227984    0.00000       Uiso       1.00
      C106          C  0.5869745  0.5536364 -0.0066884    0.00000       Uiso       1.00
      C107          C  0.6169888  0.5543928 -0.1703438    0.00000       Uiso       1.00
      C108          C  0.6367684  0.5794671 -0.1516074    0.00000       Uiso       1.00
      C109          C  0.6269586  0.6052247  0.0231615    0.00000       Uiso       1.00
      C110          C  0.5971407  0.6049818  0.1862987    0.00000       Uiso       1.00
      C111          C  0.5779872  0.5794448  0.1767229    0.00000       Uiso       1.00
       H61          H  0.5272582  0.5731861 -0.1906028    0.00000       Uiso       1.00
       H62          H  0.6248552  0.5365781 -0.3090374    0.00000       Uiso       1.00
       H63          H  0.6583367  0.5788743 -0.2708627    0.00000       Uiso       1.00
       H64          H  0.5891789  0.6230982  0.3177967    0.00000       Uiso       1.00
       H65          H  0.5572408  0.5799732  0.3091716    0.00000       Uiso       1.00
      C112          C  0.9658688  0.0273521  0.1411710    0.00000       Uiso       1.00
      C113          C  0.0165153  0.0533743  0.2070863    0.00000       Uiso       1.00
      C114          C  0.0675580  0.0277084  0.0865505    0.00000       Uiso       1.00
      C115          C  0.0869749  0.0536364  0.0704399    0.00000       Uiso       1.00
      C116          C  0.0779875  0.0794447 -0.1129718    0.00000       Uiso       1.00
      C117          C  0.0971410  0.1049817 -0.1225483    0.00000       Uiso       1.00
      C118          C  0.1269589  0.1052247  0.0405888    0.00000       Uiso       1.00
      C119          C  0.1367688  0.0794670  0.2153581    0.00000       Uiso       1.00
      C120          C  0.1169892  0.0543927  0.2340951    0.00000       Uiso       1.00
       H66          H  0.0272586  0.0731860  0.2543544    0.00000       Uiso       1.00
       H67          H  0.0572411  0.0799731 -0.2454205    0.00000       Uiso       1.00
       H68          H  0.0891792  0.1230980 -0.2540467    0.00000       Uiso       1.00
       H69          H  0.1583371  0.0788743  0.3346132    0.00000       Uiso       1.00
       H70          H  0.1248556  0.0365781  0.3727888    0.00000       Uiso       1.00
      C121          C  0.8310262  0.8226154 -0.0576919    0.00000       Uiso       1.00
      C122          C  0.8360183  0.7931504 -0.1724930    0.00000       Uiso       1.00
      C123          C  0.8120453  0.7715778 -0.1464611    0.00000       Uiso       1.00
      C124          C  0.7823926  0.7790815 -0.0051034    0.00000       Uiso       1.00
      C125          C  0.7770310  0.8083707  0.1093184    0.00000       Uiso       1.00
      C126          C  0.8011014  0.8298447  0.0831971    0.00000       Uiso       1.00
      C127          C  0.7601839  0.7591451  0.0201346    0.00000       Uiso       1.00
      C128          C  0.7398153  0.7408549  0.0436136    0.00000       Uiso       1.00
      C129          C  0.7176066  0.7209185  0.0688516    0.00000       Uiso       1.00
      C130          C  0.6879539  0.7284224  0.2102101    0.00000       Uiso       1.00
      C131          C  0.6639808  0.7068499  0.2362421    0.00000       Uiso       1.00
      C132          C  0.6689729  0.6773847  0.1214406    0.00000       Uiso       1.00
      C133          C  0.6988976  0.6701555 -0.0194491    0.00000       Uiso       1.00
      C134          C  0.7229680  0.6916293 -0.0455707    0.00000       Uiso       1.00
       H71          H  0.8572704  0.7870231 -0.2766936    0.00000       Uiso       1.00
       H72          H  0.8165351  0.7504663 -0.2320209    0.00000       Uiso       1.00
       H73          H  0.7556961  0.8143973  0.2130747    0.00000       Uiso       1.00
       H74          H  0.7964144  0.8508605  0.1690246    0.00000       Uiso       1.00
       H75          H  0.6834642  0.7495337  0.2957703    0.00000       Uiso       1.00
       H76          H  0.6427288  0.7129770  0.3404431    0.00000       Uiso       1.00
       H77          H  0.7035844  0.6491395 -0.1052768    0.00000       Uiso       1.00
       H78          H  0.7443030  0.6856027 -0.1493276    0.00000       Uiso       1.00
      C135          C  0.8555674  0.8436777 -0.0860436    0.00000       Uiso       1.00
        N7          N  0.8527297  0.8714878  0.0414854    0.00000       Uiso       1.00
        N8          N  0.6472691  0.6285124  0.0222644    0.00000       Uiso       1.00
      C136          C  0.6444316  0.6563225  0.1497927    0.00000       Uiso       1.00
       H79          H  0.1238561  0.1623715 -0.2047793    0.00000       Uiso       1.00
       H80          H  0.3761432  0.3376286  0.2685281    0.00000       Uiso       1.00
      C137          C  0.4173028  0.5000001  0.0239581    0.00000       Uiso       1.00
      C138          C  0.5170125  0.5000001 -0.0748752    0.00000       Uiso       1.00
       H81          H  0.3939112  0.5000001  0.0936818    0.00000       Uiso       1.00
      C139          C  0.5826964  0.5000001  0.0239581    0.00000       Uiso       1.00
      C140          C  0.4829866  0.5000001 -0.0748752    0.00000       Uiso       1.00
       H82          H  0.6060879  0.5000001  0.0936818    0.00000       Uiso       1.00
      C141          C  0.9173024  0.0000000  0.0397944    0.00000       Uiso       1.00
      C142          C  0.0170130  0.0000000  0.1386277    0.00000       Uiso       1.00
       H83          H  0.8939108  0.0000000 -0.0299290    0.00000       Uiso       1.00
      C143          C  0.0826968  0.0000000  0.0397944    0.00000       Uiso       1.00
      C144          C  0.9829862  0.0000000  0.1386277    0.00000       Uiso       1.00
       H84          H  0.1060883  0.0000000 -0.0299290    0.00000       Uiso       1.00
