data_crystal
 
_cell_length_a    30.99000
_cell_length_b    7.72000
_cell_length_c    26.49000
_cell_angle_alpha 90.00000
_cell_angle_beta  90.84000
_cell_angle_gamma 90.00000
 
_symmetry_space_group_name_Hall 'P 1'
_symmetry_space_group_name_H-M  'P 1'
 
loop_
_symmetry_equiv_pos_as_xyz
 'x,y,z' 
 
loop_
_atom_site_label
_atom_site_type_symbol
_atom_site_fract_x
_atom_site_fract_y
_atom_site_fract_z
_atom_site_charge
C          C       0.02887   0.03063   0.28573   0.0000000000
C          C       0.97113   0.03063   0.21427   0.0000000000
C          C       0.52887   0.53063   0.28573   0.0000000000
C          C       0.47113   0.53063   0.21427   0.0000000000
C          C       0.97113   0.96937   0.71427   0.0000000000
C          C       0.02887   0.96937   0.78573   0.0000000000
C          C       0.47113   0.46937   0.71427   0.0000000000
C          C       0.52887   0.46937   0.78573   0.0000000000
C          C       0.97438   0.77380   0.28445   0.0000000000
C          C       0.02562   0.77380   0.21555   0.0000000000
C          C       0.47438   0.27380   0.28445   0.0000000000
C          C       0.52562   0.27380   0.21555   0.0000000000
C          C       0.02562   0.22620   0.71555   0.0000000000
C          C       0.97438   0.22620   0.78445   0.0000000000
C          C       0.52562   0.72620   0.71555   0.0000000000
C          C       0.47438   0.72620   0.78445   0.0000000000
C          C       0.92984   0.78057   0.28270   0.0000000000
C          C       0.07016   0.78057   0.21730   0.0000000000
C          C       0.42984   0.28057   0.28270   0.0000000000
C          C       0.57016   0.28057   0.21730   0.0000000000
C          C       0.07016   0.21943   0.71730   0.0000000000
C          C       0.92984   0.21943   0.78270   0.0000000000
C          C       0.57016   0.71943   0.71730   0.0000000000
C          C       0.42984   0.71943   0.78270   0.0000000000
C          C       0.92996   0.52541   0.34528   0.0000000000
C          C       0.07004   0.52541   0.15472   0.0000000000
C          C       0.42996   0.02541   0.34528   0.0000000000
C          C       0.57004   0.02541   0.15472   0.0000000000
C          C       0.07004   0.47459   0.65472   0.0000000000
C          C       0.92996   0.47459   0.84528   0.0000000000
C          C       0.57004   0.97459   0.65472   0.0000000000
C          C       0.42996   0.97459   0.84528   0.0000000000
C          C       0.04930   0.16555   0.25698   0.0000000000
C          C       0.95070   0.16555   0.24302   0.0000000000
C          C       0.54930   0.66555   0.25698   0.0000000000
C          C       0.45070   0.66555   0.24302   0.0000000000
C          C       0.95070   0.83445   0.74302   0.0000000000
C          C       0.04930   0.83445   0.75698   0.0000000000
C          C       0.45070   0.33445   0.74302   0.0000000000
C          C       0.54930   0.33445   0.75698   0.0000000000
C          C       0.99645   0.64056   0.31803   0.0000000000
C          C       0.00355   0.64056   0.18197   0.0000000000
C          C       0.49645   0.14056   0.31803   0.0000000000
C          C       0.50355   0.14056   0.18197   0.0000000000
C          C       0.00355   0.35944   0.68197   0.0000000000
C          C       0.99645   0.35944   0.81803   0.0000000000
C          C       0.50355   0.85944   0.68197   0.0000000000
C          C       0.49645   0.85944   0.81803   0.0000000000
C          C       0.90795   0.65839   0.31290   0.0000000000
C          C       0.09205   0.65839   0.18710   0.0000000000
C          C       0.40795   0.15839   0.31290   0.0000000000
C          C       0.59205   0.15839   0.18710   0.0000000000
C          C       0.09205   0.34161   0.68710   0.0000000000
C          C       0.90795   0.34161   0.81290   0.0000000000
C          C       0.59205   0.84161   0.68710   0.0000000000
C          C       0.40795   0.84161   0.81290   0.0000000000
N          N       0.10069   0.45420   0.37059   0.0000000000
N          N       0.89931   0.45420   0.12941   0.0000000000
N          N       0.60069   0.95420   0.37059   0.0000000000
N          N       0.39931   0.95420   0.12941   0.0000000000
N          N       0.89931   0.54580   0.62941   0.0000000000
N          N       0.10069   0.54580   0.87059   0.0000000000
N          N       0.39931   0.04580   0.62941   0.0000000000
N          N       0.60069   0.04580   0.87059   0.0000000000
C          C       0.03327   0.03725   0.34344   0.0000000000
C          C       0.96673   0.03725   0.15656   0.0000000000
C          C       0.53327   0.53725   0.34344   0.0000000000
C          C       0.46673   0.53725   0.15656   0.0000000000
C          C       0.96673   0.96275   0.65656   0.0000000000
C          C       0.03327   0.96275   0.84344   0.0000000000
C          C       0.46673   0.46275   0.65656   0.0000000000
C          C       0.53327   0.46275   0.84344   0.0000000000
C          C       0.07714   0.30988   0.34203   0.0000000000
C          C       0.92286   0.30988   0.15797   0.0000000000
C          C       0.57714   0.80988   0.34203   0.0000000000
C          C       0.42286   0.80988   0.15797   0.0000000000
C          C       0.92286   0.69012   0.65797   0.0000000000
C          C       0.07714   0.69012   0.84203   0.0000000000
C          C       0.42286   0.19012   0.65797   0.0000000000
C          C       0.57714   0.19012   0.84203   0.0000000000
C          C       0.05745   0.17550   0.37139   0.0000000000
C          C       0.94255   0.17550   0.12861   0.0000000000
C          C       0.55745   0.67550   0.37139   0.0000000000
C          C       0.44255   0.67550   0.12861   0.0000000000
C          C       0.94255   0.82450   0.62861   0.0000000000
C          C       0.05745   0.82450   0.87139   0.0000000000
C          C       0.44255   0.32450   0.62861   0.0000000000
C          C       0.55745   0.32450   0.87139   0.0000000000
N          N       0.90559   0.39547   0.37197   0.0000000000
N          N       0.09441   0.39547   0.12803   0.0000000000
N          N       0.40559   0.89547   0.37197   0.0000000000
N          N       0.59441   0.89547   0.12803   0.0000000000
N          N       0.09441   0.60453   0.62803   0.0000000000
N          N       0.90559   0.60453   0.87197   0.0000000000
N          N       0.59441   0.10453   0.62803   0.0000000000
N          N       0.40559   0.10453   0.87197   0.0000000000
C          C       0.97444   0.51708   0.34834   0.0000000000
C          C       0.02556   0.51708   0.15166   0.0000000000
C          C       0.47444   0.01708   0.34834   0.0000000000
C          C       0.52556   0.01708   0.15166   0.0000000000
C          C       0.02556   0.48292   0.65166   0.0000000000
C          C       0.97444   0.48292   0.84834   0.0000000000
C          C       0.52556   0.98292   0.65166   0.0000000000
C          C       0.47444   0.98292   0.84834   0.0000000000
C          C       0.07304   0.30317   0.28464   0.0000000000
C          C       0.92696   0.30317   0.21536   0.0000000000
C          C       0.57304   0.80317   0.28464   0.0000000000
C          C       0.42696   0.80317   0.21536   0.0000000000
C          C       0.92696   0.69683   0.71536   0.0000000000
C          C       0.07304   0.69683   0.78464   0.0000000000
C          C       0.42696   0.19683   0.71536   0.0000000000
C          C       0.57304   0.19683   0.78464   0.0000000000
C          C       0.22543   0.10380   0.47594   0.0000000000
C          C       0.77457   0.10380   0.02406   0.0000000000
C          C       0.72543   0.60380   0.47594   0.0000000000
C          C       0.27457   0.60380   0.02406   0.0000000000
C          C       0.77457   0.89620   0.52406   0.0000000000
C          C       0.22543   0.89620   0.97594   0.0000000000
C          C       0.27457   0.39620   0.52406   0.0000000000
C          C       0.72543   0.39620   0.97594   0.0000000000
C          C       0.26181   0.16336   0.45244   0.0000000000
C          C       0.73819   0.16336   0.04756   0.0000000000
C          C       0.76181   0.66336   0.45244   0.0000000000
C          C       0.23819   0.66336   0.04756   0.0000000000
C          C       0.73819   0.83664   0.54756   0.0000000000
C          C       0.26181   0.83664   0.95244   0.0000000000
C          C       0.23819   0.33664   0.54756   0.0000000000
C          C       0.76181   0.33664   0.95244   0.0000000000
C          C       0.28621   0.30974   0.47618   0.0000000000
C          C       0.71379   0.30974   0.02382   0.0000000000
C          C       0.78621   0.80974   0.47618   0.0000000000
C          C       0.21379   0.80974   0.02382   0.0000000000
C          C       0.71379   0.69026   0.52382   0.0000000000
C          C       0.28621   0.69026   0.97618   0.0000000000
C          C       0.21379   0.19026   0.52382   0.0000000000
C          C       0.78621   0.19026   0.97618   0.0000000000
C          C       0.17191   0.03527   0.39990   0.0000000000
C          C       0.82809   0.03527   0.10010   0.0000000000
C          C       0.67191   0.53527   0.39990   0.0000000000
C          C       0.32809   0.53527   0.10010   0.0000000000
C          C       0.82809   0.96473   0.60010   0.0000000000
C          C       0.17191   0.96473   0.89990   0.0000000000
C          C       0.32809   0.46473   0.60010   0.0000000000
C          C       0.67191   0.46473   0.89990   0.0000000000
C          C       0.86352   0.88577   0.47099   0.0000000000
C          C       0.13648   0.88577   0.02901   0.0000000000
C          C       0.36352   0.38577   0.47099   0.0000000000
C          C       0.63648   0.38577   0.02901   0.0000000000
C          C       0.13648   0.11423   0.52901   0.0000000000
C          C       0.86352   0.11423   0.97099   0.0000000000
C          C       0.63648   0.61423   0.52901   0.0000000000
C          C       0.36352   0.61423   0.97099   0.0000000000
C          C       0.82115   0.89467   0.44837   0.0000000000
C          C       0.17885   0.89467   0.05163   0.0000000000
C          C       0.32115   0.39467   0.44837   0.0000000000
C          C       0.67885   0.39467   0.05163   0.0000000000
C          C       0.17885   0.10533   0.55163   0.0000000000
C          C       0.82115   0.10533   0.94837   0.0000000000
C          C       0.67885   0.60533   0.55163   0.0000000000
C          C       0.32115   0.60533   0.94837   0.0000000000
C          C       0.80846   0.02873   0.40986   0.0000000000
C          C       0.19154   0.02873   0.09014   0.0000000000
C          C       0.30846   0.52873   0.40986   0.0000000000
C          C       0.69154   0.52873   0.09014   0.0000000000
C          C       0.19154   0.97127   0.59014   0.0000000000
C          C       0.80846   0.97127   0.90986   0.0000000000
C          C       0.69154   0.47127   0.59014   0.0000000000
C          C       0.30846   0.47127   0.90986   0.0000000000
C          C       0.83807   0.15605   0.39331   0.0000000000
C          C       0.16193   0.15605   0.10669   0.0000000000
C          C       0.33807   0.65605   0.39331   0.0000000000
C          C       0.66193   0.65605   0.10669   0.0000000000
C          C       0.16193   0.84395   0.60669   0.0000000000
C          C       0.83807   0.84395   0.89331   0.0000000000
C          C       0.66193   0.34395   0.60669   0.0000000000
C          C       0.33807   0.34395   0.89331   0.0000000000
C          C       0.88104   0.13994   0.41324   0.0000000000
C          C       0.11896   0.13994   0.08676   0.0000000000
C          C       0.38104   0.63994   0.41324   0.0000000000
C          C       0.61896   0.63994   0.08676   0.0000000000
C          C       0.11896   0.86006   0.58676   0.0000000000
C          C       0.88104   0.86006   0.91324   0.0000000000
C          C       0.61896   0.36006   0.58676   0.0000000000
C          C       0.38104   0.36006   0.91324   0.0000000000
C          C       0.89378   0.00542   0.45231   0.0000000000
C          C       0.10622   0.00542   0.04769   0.0000000000
C          C       0.39378   0.50542   0.45231   0.0000000000
C          C       0.60622   0.50542   0.04769   0.0000000000
C          C       0.10622   0.99458   0.54769   0.0000000000
C          C       0.89378   0.99458   0.95231   0.0000000000
C          C       0.60622   0.49458   0.54769   0.0000000000
C          C       0.39378   0.49458   0.95231   0.0000000000
C          C       0.14739   0.90888   0.36711   0.0000000000
C          C       0.85261   0.90888   0.13289   0.0000000000
C          C       0.64739   0.40888   0.36711   0.0000000000
C          C       0.35261   0.40888   0.13289   0.0000000000
C          C       0.85261   0.09112   0.63289   0.0000000000
C          C       0.14739   0.09112   0.86711   0.0000000000
C          C       0.35261   0.59112   0.63289   0.0000000000
C          C       0.64739   0.59112   0.86711   0.0000000000
C          C       0.14646   0.72480   0.38239   0.0000000000
C          C       0.85354   0.72480   0.11761   0.0000000000
C          C       0.64646   0.22480   0.38239   0.0000000000
C          C       0.35354   0.22480   0.11761   0.0000000000
C          C       0.85354   0.27520   0.61761   0.0000000000
C          C       0.14646   0.27520   0.88239   0.0000000000
C          C       0.35354   0.77520   0.61761   0.0000000000
C          C       0.64646   0.77520   0.88239   0.0000000000
C          C       0.16944   0.66560   0.43103   0.0000000000
C          C       0.83056   0.66560   0.06897   0.0000000000
C          C       0.66944   0.16560   0.43103   0.0000000000
C          C       0.33056   0.16560   0.06897   0.0000000000
C          C       0.83056   0.33440   0.56897   0.0000000000
C          C       0.16944   0.33440   0.93103   0.0000000000
C          C       0.33056   0.83440   0.56897   0.0000000000
C          C       0.66944   0.83440   0.93103   0.0000000000
C          C       0.19405   0.79138   0.46410   0.0000000000
C          C       0.80595   0.79138   0.03590   0.0000000000
C          C       0.69405   0.29138   0.46410   0.0000000000
C          C       0.30595   0.29138   0.03590   0.0000000000
C          C       0.80595   0.20862   0.53590   0.0000000000
C          C       0.19405   0.20862   0.96410   0.0000000000
C          C       0.30595   0.70862   0.53590   0.0000000000
C          C       0.69405   0.70862   0.96410   0.0000000000
C          C       0.19547   0.97537   0.44837   0.0000000000
C          C       0.80453   0.97537   0.05163   0.0000000000
C          C       0.69547   0.47537   0.44837   0.0000000000
C          C       0.30453   0.47537   0.05163   0.0000000000
C          C       0.80453   0.02463   0.55163   0.0000000000
C          C       0.19547   0.02463   0.94837   0.0000000000
C          C       0.30453   0.52463   0.55163   0.0000000000
C          C       0.69547   0.52463   0.94837   0.0000000000
C          C       0.91612   0.24786   0.39975   0.0000000000
C          C       0.08388   0.24786   0.10025   0.0000000000
C          C       0.41612   0.74786   0.39975   0.0000000000
C          C       0.58388   0.74786   0.10025   0.0000000000
C          C       0.08388   0.75214   0.60025   0.0000000000
C          C       0.91612   0.75214   0.89975   0.0000000000
C          C       0.58388   0.25214   0.60025   0.0000000000
C          C       0.41612   0.25214   0.89975   0.0000000000
C          C       0.12712   0.56500   0.34941   0.0000000000
C          C       0.87288   0.56500   0.15059   0.0000000000
C          C       0.62712   0.06500   0.34941   0.0000000000
C          C       0.37288   0.06500   0.15059   0.0000000000
C          C       0.87288   0.43500   0.65059   0.0000000000
C          C       0.12712   0.43500   0.84941   0.0000000000
C          C       0.37288   0.93500   0.65059   0.0000000000
C          C       0.62712   0.93500   0.84941   0.0000000000
C          C       0.27564   0.06618   0.40320   0.0000000000
C          C       0.72436   0.06618   0.09680   0.0000000000
C          C       0.77564   0.56618   0.40320   0.0000000000
C          C       0.22436   0.56618   0.09680   0.0000000000
C          C       0.72436   0.93382   0.59680   0.0000000000
C          C       0.27564   0.93382   0.90320   0.0000000000
C          C       0.22436   0.43382   0.59680   0.0000000000
C          C       0.77564   0.43382   0.90320   0.0000000000
H          H       0.91122   0.88739   0.25623   0.0000000000
H          H       0.08878   0.88739   0.24377   0.0000000000
H          H       0.41122   0.38739   0.25623   0.0000000000
H          H       0.58878   0.38739   0.24377   0.0000000000
H          H       0.08878   0.11261   0.74377   0.0000000000
H          H       0.91122   0.11261   0.75623   0.0000000000
H          H       0.58878   0.61261   0.74377   0.0000000000
H          H       0.41122   0.61261   0.75623   0.0000000000
H          H       0.04649   0.16289   0.21034   0.0000000000
H          H       0.95351   0.16289   0.28966   0.0000000000
H          H       0.54649   0.66289   0.21034   0.0000000000
H          H       0.45351   0.66289   0.28966   0.0000000000
H          H       0.95351   0.83711   0.78966   0.0000000000
H          H       0.04649   0.83711   0.71034   0.0000000000
H          H       0.45351   0.33711   0.78966   0.0000000000
H          H       0.54649   0.33711   0.71034   0.0000000000
H          H       0.03248   0.63291   0.32062   0.0000000000
H          H       0.96752   0.63291   0.17938   0.0000000000
H          H       0.53248   0.13291   0.32062   0.0000000000
H          H       0.46752   0.13291   0.17938   0.0000000000
H          H       0.96752   0.36709   0.67938   0.0000000000
H          H       0.03248   0.36709   0.82062   0.0000000000
H          H       0.46752   0.86709   0.67938   0.0000000000
H          H       0.53248   0.86709   0.82062   0.0000000000
H          H       0.87197   0.66680   0.31122   0.0000000000
H          H       0.12803   0.66680   0.18878   0.0000000000
H          H       0.37197   0.16680   0.31122   0.0000000000
H          H       0.62803   0.16680   0.18878   0.0000000000
H          H       0.12803   0.33320   0.68878   0.0000000000
H          H       0.87197   0.33320   0.81122   0.0000000000
H          H       0.62803   0.83320   0.68878   0.0000000000
H          H       0.37197   0.83320   0.81122   0.0000000000
H          H       0.01710   0.92967   0.36777   0.0000000000
H          H       0.98290   0.92967   0.13223   0.0000000000
H          H       0.51710   0.42967   0.36777   0.0000000000
H          H       0.48290   0.42967   0.13223   0.0000000000
H          H       0.98290   0.07033   0.63223   0.0000000000
H          H       0.01710   0.07033   0.86777   0.0000000000
H          H       0.48290   0.57033   0.63223   0.0000000000
H          H       0.51710   0.57033   0.86777   0.0000000000
H          H       0.06107   0.17846   0.41804   0.0000000000
H          H       0.93893   0.17846   0.08196   0.0000000000
H          H       0.56107   0.67846   0.41804   0.0000000000
H          H       0.43893   0.67846   0.08196   0.0000000000
H          H       0.93893   0.82154   0.58196   0.0000000000
H          H       0.06107   0.82154   0.91804   0.0000000000
H          H       0.43893   0.32154   0.58196   0.0000000000
H          H       0.56107   0.32154   0.91804   0.0000000000
H          H       0.99244   0.41007   0.37543   0.0000000000
H          H       0.00756   0.41007   0.12457   0.0000000000
H          H       0.49244   0.91007   0.37543   0.0000000000
H          H       0.50756   0.91007   0.12457   0.0000000000
H          H       0.00756   0.58993   0.62457   0.0000000000
H          H       0.99244   0.58993   0.87543   0.0000000000
H          H       0.50756   0.08993   0.62457   0.0000000000
H          H       0.49244   0.08993   0.87543   0.0000000000
H          H       0.08932   0.41145   0.26070   0.0000000000
H          H       0.91068   0.41145   0.23930   0.0000000000
H          H       0.58932   0.91145   0.26070   0.0000000000
H          H       0.41068   0.91145   0.23930   0.0000000000
H          H       0.91068   0.58855   0.73930   0.0000000000
H          H       0.08932   0.58855   0.76070   0.0000000000
H          H       0.41068   0.08855   0.73930   0.0000000000
H          H       0.58932   0.08855   0.76070   0.0000000000
H          H       0.17266   0.18547   0.38722   0.0000000000
H          H       0.82734   0.18547   0.11278   0.0000000000
H          H       0.67266   0.68547   0.38722   0.0000000000
H          H       0.32734   0.68547   0.11278   0.0000000000
H          H       0.82734   0.81453   0.61278   0.0000000000
H          H       0.17266   0.81453   0.88722   0.0000000000
H          H       0.32734   0.31453   0.61278   0.0000000000
H          H       0.67266   0.31453   0.88722   0.0000000000
H          H       0.87349   0.78173   0.50450   0.0000000000
H          H       0.12651   0.78173   0.99550   0.0000000000
H          H       0.37349   0.28173   0.50450   0.0000000000
H          H       0.62651   0.28173   0.99550   0.0000000000
H          H       0.12651   0.21827   0.49550   0.0000000000
H          H       0.87349   0.21827   0.00450   0.0000000000
H          H       0.62651   0.71827   0.49550   0.0000000000
H          H       0.37349   0.71827   0.00450   0.0000000000
H          H       0.77400   0.03606   0.39153   0.0000000000
H          H       0.22600   0.03606   0.10847   0.0000000000
H          H       0.27400   0.53606   0.39153   0.0000000000
H          H       0.72600   0.53606   0.10847   0.0000000000
H          H       0.22600   0.96394   0.60847   0.0000000000
H          H       0.77400   0.96394   0.89153   0.0000000000
H          H       0.72600   0.46394   0.60847   0.0000000000
H          H       0.27400   0.46394   0.89153   0.0000000000
H          H       0.82710   0.27141   0.36388   0.0000000000
H          H       0.17290   0.27141   0.13612   0.0000000000
H          H       0.32710   0.77141   0.36388   0.0000000000
H          H       0.67290   0.77141   0.13612   0.0000000000
H          H       0.17290   0.72859   0.63612   0.0000000000
H          H       0.82710   0.72859   0.86388   0.0000000000
H          H       0.67290   0.22859   0.63612   0.0000000000
H          H       0.32710   0.22859   0.86388   0.0000000000
H          H       0.92857   0.99301   0.46890   0.0000000000
H          H       0.07143   0.99301   0.03110   0.0000000000
H          H       0.42857   0.49301   0.46890   0.0000000000
H          H       0.57143   0.49301   0.03110   0.0000000000
H          H       0.07143   0.00699   0.53110   0.0000000000
H          H       0.92857   0.00699   0.96890   0.0000000000
H          H       0.57143   0.50699   0.53110   0.0000000000
H          H       0.42857   0.50699   0.96890   0.0000000000
H          H       0.12818   0.95661   0.32789   0.0000000000
H          H       0.87182   0.95661   0.17211   0.0000000000
H          H       0.62818   0.45661   0.32789   0.0000000000
H          H       0.37182   0.45661   0.17211   0.0000000000
H          H       0.87182   0.04339   0.67211   0.0000000000
H          H       0.12818   0.04339   0.82789   0.0000000000
H          H       0.37182   0.54339   0.67211   0.0000000000
H          H       0.62818   0.54339   0.82789   0.0000000000
H          H       0.16819   0.51560   0.44378   0.0000000000
H          H       0.83181   0.51560   0.05622   0.0000000000
H          H       0.66819   0.01560   0.44378   0.0000000000
H          H       0.33181   0.01560   0.05622   0.0000000000
H          H       0.83181   0.48440   0.55622   0.0000000000
H          H       0.16819   0.48440   0.94378   0.0000000000
H          H       0.33181   0.98440   0.55622   0.0000000000
H          H       0.66819   0.98440   0.94378   0.0000000000
H          H       0.21278   0.74324   0.50362   0.0000000000
H          H       0.78722   0.74324   0.99638   0.0000000000
H          H       0.71278   0.24324   0.50362   0.0000000000
H          H       0.28722   0.24324   0.99638   0.0000000000
H          H       0.78722   0.25676   0.49638   0.0000000000
H          H       0.21278   0.25676   0.00362   0.0000000000
H          H       0.28722   0.75676   0.49638   0.0000000000
H          H       0.71278   0.75676   0.00362   0.0000000000
H          H       0.95097   0.21402   0.41129   0.0000000000
H          H       0.04903   0.21402   0.08871   0.0000000000
H          H       0.45097   0.71402   0.41129   0.0000000000
H          H       0.54903   0.71402   0.08871   0.0000000000
H          H       0.04903   0.78598   0.58871   0.0000000000
H          H       0.95097   0.78598   0.91129   0.0000000000
H          H       0.54903   0.28598   0.58871   0.0000000000
H          H       0.45097   0.28598   0.91129   0.0000000000
H          H       0.13561   0.54113   0.30599   0.0000000000
H          H       0.86439   0.54113   0.19401   0.0000000000
H          H       0.63561   0.04113   0.30599   0.0000000000
H          H       0.36439   0.04113   0.19401   0.0000000000
H          H       0.86439   0.45887   0.69401   0.0000000000
H          H       0.13561   0.45887   0.80599   0.0000000000
H          H       0.36439   0.95887   0.69401   0.0000000000
H          H       0.63561   0.95887   0.80599   0.0000000000
H          H       0.26062   0.13531   0.36431   0.0000000000
H          H       0.73938   0.13531   0.13569   0.0000000000
H          H       0.76062   0.63531   0.36431   0.0000000000
H          H       0.23938   0.63531   0.13569   0.0000000000
H          H       0.73938   0.86469   0.63569   0.0000000000
H          H       0.26062   0.86469   0.86431   0.0000000000
H          H       0.23938   0.36469   0.63569   0.0000000000
H          H       0.76062   0.36469   0.86431   0.0000000000
H          H       0.26515   0.91676   0.40361   0.0000000000
H          H       0.73485   0.91676   0.09639   0.0000000000
H          H       0.76515   0.41676   0.40361   0.0000000000
H          H       0.23485   0.41676   0.09639   0.0000000000
H          H       0.73485   0.08324   0.59639   0.0000000000
H          H       0.26515   0.08324   0.90361   0.0000000000
H          H       0.23485   0.58324   0.59639   0.0000000000
H          H       0.76515   0.58324   0.90361   0.0000000000
H          H       0.31162   0.07290   0.40440   0.0000000000
H          H       0.68838   0.07290   0.09560   0.0000000000
H          H       0.81162   0.57290   0.40440   0.0000000000
H          H       0.18838   0.57290   0.09560   0.0000000000
H          H       0.68838   0.92710   0.59560   0.0000000000
H          H       0.31162   0.92710   0.90440   0.0000000000
H          H       0.18838   0.42710   0.59560   0.0000000000
H          H       0.81162   0.42710   0.90440   0.0000000000
C          C       0.00000   0.90156   0.25000   0.0000000000
C          C       0.50000   0.40156   0.25000   0.0000000000
C          C       0.00000   0.09844   0.75000   0.0000000000
C          C       0.50000   0.59844   0.75000   0.0000000000
