data_crystal

_cell_length_a    29.37430
_cell_length_b    56.29450
_cell_length_c    9.13060
_cell_angle_alpha 90.00000
_cell_angle_beta  90.00000
_cell_angle_gamma 90.00000

_space_group_name_Hall 'P 1'
_space_group_name_H-M_alt  'P 1'

loop_
_symmetry_equiv_pos_as_xyz
'x,y,z' 

loop_
_atom_site_label
_atom_site_type_symbol
_atom_site_fract_x
_atom_site_fract_y
_atom_site_fract_z
C          C       0.60861   0.16573   0.17321 
C          C       0.39139   0.83427   0.17321 
C          C       0.85861   0.08427   0.42321 
C          C       0.64139   0.41573   0.42321 
C          C       0.60861   0.66573   0.67321 
C          C       0.39139   0.33427   0.67321 
C          C       0.85861   0.58427   0.92321 
C          C       0.64139   0.91573   0.92321 
C          C       0.10861   0.16573   0.67321 
C          C       0.89139   0.83427   0.67321 
C          C       0.35861   0.08427   0.92321 
C          C       0.14139   0.41573   0.92321 
C          C       0.10861   0.66573   0.17321 
C          C       0.89139   0.33427   0.17321 
C          C       0.35861   0.58427   0.42321 
C          C       0.14139   0.91573   0.42321 
C          C       0.56683   0.15028   0.19519 
C          C       0.43317   0.84972   0.19519 
C          C       0.81683   0.09972   0.44519 
C          C       0.68317   0.40028   0.44519 
C          C       0.56683   0.65028   0.69519 
C          C       0.43317   0.34972   0.69519 
C          C       0.81683   0.59972   0.94519 
C          C       0.68317   0.90028   0.94519 
C          C       0.06683   0.15028   0.69519 
C          C       0.93317   0.84972   0.69519 
C          C       0.31683   0.09972   0.94519 
C          C       0.18317   0.40028   0.94519 
C          C       0.06683   0.65028   0.19519 
C          C       0.93317   0.34972   0.19519 
C          C       0.31683   0.59972   0.44519 
C          C       0.18317   0.90028   0.44519 
C          C       0.61320   0.16882   0.91625 
C          C       0.38680   0.83118   0.91625 
C          C       0.86320   0.08118   0.16625 
C          C       0.63680   0.41882   0.16625 
C          C       0.61320   0.66882   0.41625 
C          C       0.38680   0.33118   0.41625 
C          C       0.86320   0.58118   0.66625 
C          C       0.63680   0.91882   0.66625 
C          C       0.11320   0.16882   0.41625 
C          C       0.88680   0.83118   0.41625 
C          C       0.36320   0.08118   0.66625 
C          C       0.13680   0.41882   0.66625 
C          C       0.11320   0.66882   0.91625 
C          C       0.88680   0.33118   0.91625 
C          C       0.36320   0.58118   0.16625 
C          C       0.13680   0.91882   0.16625 
N          N       0.62901   0.16062   0.03532 
N          N       0.37099   0.83938   0.03532 
N          N       0.87901   0.08938   0.28532 
N          N       0.62099   0.41062   0.28532 
N          N       0.62901   0.66062   0.53532 
N          N       0.37099   0.33938   0.53532 
N          N       0.87901   0.58938   0.78532 
N          N       0.62099   0.91062   0.78532 
N          N       0.12901   0.16062   0.53532 
N          N       0.87099   0.83938   0.53532 
N          N       0.37901   0.08938   0.78532 
N          N       0.12099   0.41062   0.78532 
N          N       0.12901   0.66062   0.03532 
N          N       0.87099   0.33938   0.03532 
N          N       0.37901   0.58938   0.28532 
N          N       0.12099   0.91062   0.28532 
C          C       0.56021   0.12990   0.37402 
C          C       0.43979   0.87010   0.37402 
C          C       0.81021   0.12010   0.62402 
C          C       0.68979   0.37990   0.62402 
C          C       0.56021   0.62990   0.87402 
C          C       0.43979   0.37010   0.87402 
C          C       0.81021   0.62010   0.12402 
C          C       0.68979   0.87990   0.12402 
C          C       0.06021   0.12990   0.87402 
C          C       0.93979   0.87010   0.87402 
C          C       0.31021   0.12010   0.12402 
C          C       0.18979   0.37990   0.12402 
C          C       0.06021   0.62990   0.37402 
C          C       0.93979   0.37010   0.37402 
C          C       0.31021   0.62010   0.62402 
C          C       0.18979   0.87990   0.62402 
N          N       0.57468   0.13503   0.24631 
N          N       0.42532   0.86497   0.24631 
N          N       0.82468   0.11497   0.49631 
N          N       0.67532   0.38503   0.49631 
N          N       0.57468   0.63503   0.74631 
N          N       0.42532   0.36497   0.74631 
N          N       0.82468   0.61497   0.99631 
N          N       0.67532   0.88503   0.99631 
N          N       0.07468   0.13503   0.74631 
N          N       0.92532   0.86497   0.74631 
N          N       0.32468   0.11497   0.99631 
N          N       0.17532   0.38503   0.99631 
N          N       0.07468   0.63503   0.24631 
N          N       0.92532   0.36497   0.24631 
N          N       0.32468   0.61497   0.49631 
N          N       0.17532   0.88503   0.49631 
C          C       0.63290   0.16185   0.77823 
C          C       0.36710   0.83815   0.77823 
C          C       0.88290   0.08815   0.02823 
C          C       0.61710   0.41185   0.02823 
C          C       0.63290   0.66185   0.27823 
C          C       0.36710   0.33815   0.27823 
C          C       0.88290   0.58815   0.52823 
C          C       0.61710   0.91185   0.52823 
C          C       0.13290   0.16185   0.27823 
C          C       0.86710   0.83815   0.27823 
C          C       0.38290   0.08815   0.52823 
C          C       0.11710   0.41185   0.52823 
C          C       0.13290   0.66185   0.77823 
C          C       0.86710   0.33815   0.77823 
C          C       0.38290   0.58815   0.02823 
C          C       0.11710   0.91185   0.02823 
C          C       0.64224   0.18056   0.68130 
C          C       0.35776   0.81944   0.68130 
C          C       0.89224   0.06944   0.93130 
C          C       0.60776   0.43056   0.93130 
C          C       0.64224   0.68056   0.18130 
C          C       0.35776   0.31944   0.18130 
C          C       0.89224   0.56944   0.43130 
C          C       0.60776   0.93056   0.43130 
C          C       0.14224   0.18056   0.18130 
C          C       0.85776   0.81944   0.18130 
C          C       0.39224   0.06944   0.43130 
C          C       0.10776   0.43056   0.43130 
C          C       0.14224   0.68056   0.68130 
C          C       0.85776   0.31944   0.68130 
C          C       0.39224   0.56944   0.93130 
C          C       0.10776   0.93056   0.93130 
C          C       0.57024   0.10770   0.38976 
C          C       0.42976   0.89230   0.38976 
C          C       0.82024   0.14230   0.63976 
C          C       0.67976   0.35770   0.63976 
C          C       0.57024   0.60770   0.88976 
C          C       0.42976   0.39230   0.88976 
C          C       0.82024   0.64230   0.13976 
C          C       0.67976   0.85770   0.13976 
C          C       0.07024   0.10770   0.88976 
C          C       0.92976   0.89230   0.88976 
C          C       0.32024   0.14230   0.13976 
C          C       0.17976   0.35770   0.13976 
C          C       0.07024   0.60770   0.38976 
C          C       0.92976   0.39230   0.38976 
C          C       0.32024   0.64230   0.63976 
C          C       0.17976   0.85770   0.63976 
C          C       0.55200   0.09108   0.48848 
C          C       0.44800   0.90892   0.48848 
C          C       0.80200   0.15892   0.73848 
C          C       0.69800   0.34108   0.73848 
C          C       0.55200   0.59108   0.98848 
C          C       0.44800   0.40892   0.98848 
C          C       0.80200   0.65892   0.23848 
C          C       0.69800   0.84108   0.23848 
C          C       0.05200   0.09108   0.98848 
C          C       0.94800   0.90892   0.98848 
C          C       0.30200   0.15892   0.23848 
C          C       0.19800   0.34108   0.23848 
C          C       0.05200   0.59108   0.48848 
C          C       0.94800   0.40892   0.48848 
C          C       0.30200   0.65892   0.73848 
C          C       0.19800   0.84108   0.73848 
C          C       0.66866   0.17494   0.55812 
C          C       0.33134   0.82506   0.55812 
C          C       0.91866   0.07506   0.80812 
C          C       0.58134   0.42494   0.80812 
C          C       0.66866   0.67494   0.05812 
C          C       0.33134   0.32506   0.05812 
C          C       0.91866   0.57506   0.30812 
C          C       0.58134   0.92494   0.30812 
C          C       0.16866   0.17494   0.05812 
C          C       0.83134   0.82506   0.05812 
C          C       0.41866   0.07506   0.30812 
C          C       0.08134   0.42494   0.30812 
C          C       0.16866   0.67494   0.55812 
C          C       0.83134   0.32506   0.55812 
C          C       0.41866   0.57506   0.80812 
C          C       0.08134   0.92494   0.80812 
C          C       0.68355   0.15165   0.53333 
C          C       0.31645   0.84835   0.53333 
C          C       0.93355   0.09835   0.78333 
C          C       0.56645   0.40165   0.78333 
C          C       0.68355   0.65165   0.03333 
C          C       0.31645   0.34835   0.03333 
C          C       0.93355   0.59835   0.28333 
C          C       0.56645   0.90165   0.28333 
C          C       0.18355   0.15165   0.03333 
C          C       0.81645   0.84835   0.03333 
C          C       0.43355   0.09835   0.28333 
C          C       0.06645   0.40165   0.28333 
C          C       0.18355   0.65165   0.53333 
C          C       0.81645   0.34835   0.53333 
C          C       0.43355   0.59835   0.78333 
C          C       0.06645   0.90165   0.78333 
C          C       0.67346   0.13315   0.62988 
C          C       0.32654   0.86685   0.62988 
C          C       0.92346   0.11685   0.87988 
C          C       0.57654   0.38315   0.87988 
C          C       0.67346   0.63315   0.12988 
C          C       0.32654   0.36685   0.12988 
C          C       0.92346   0.61685   0.37988 
C          C       0.57654   0.88315   0.37988 
C          C       0.17346   0.13315   0.12988 
C          C       0.82654   0.86685   0.12988 
C          C       0.42346   0.11685   0.37988 
C          C       0.07654   0.38315   0.37988 
C          C       0.17346   0.63315   0.62988 
C          C       0.82654   0.36685   0.62988 
C          C       0.42346   0.61685   0.87988 
C          C       0.07654   0.88315   0.87988 
C          C       0.64659   0.13850   0.75252 
C          C       0.35341   0.86150   0.75252 
C          C       0.89659   0.11150   0.00252 
C          C       0.60341   0.38850   0.00252 
C          C       0.64659   0.63850   0.25252 
C          C       0.35341   0.36150   0.25252 
C          C       0.89659   0.61150   0.50252 
C          C       0.60341   0.88850   0.50252 
C          C       0.14659   0.13850   0.25252 
C          C       0.85341   0.86150   0.25252 
C          C       0.39659   0.11150   0.50252 
C          C       0.10341   0.38850   0.50252 
C          C       0.14659   0.63850   0.75252 
C          C       0.85341   0.36150   0.75252 
C          C       0.39659   0.61150   0.00252 
C          C       0.10341   0.88850   0.00252 
C          C       0.56042   0.06736   0.45386 
C          C       0.43958   0.93264   0.45386 
C          C       0.81042   0.18264   0.70386 
C          C       0.68958   0.31736   0.70386 
C          C       0.56042   0.56736   0.95386 
C          C       0.43958   0.43264   0.95386 
C          C       0.81042   0.68264   0.20386 
C          C       0.68958   0.81736   0.20386 
C          C       0.06042   0.06736   0.95386 
C          C       0.93958   0.93264   0.95386 
C          C       0.31042   0.18264   0.20386 
C          C       0.18958   0.31736   0.20386 
C          C       0.06042   0.56736   0.45386 
C          C       0.93958   0.43264   0.45386 
C          C       0.31042   0.68264   0.70386 
C          C       0.18958   0.81736   0.70386 
C          C       0.58040   0.06154   0.31961 
C          C       0.41960   0.93846   0.31961 
C          C       0.83040   0.18846   0.56961 
C          C       0.66960   0.31154   0.56961 
C          C       0.58040   0.56154   0.81961 
C          C       0.41960   0.43846   0.81961 
C          C       0.83040   0.68846   0.06961 
C          C       0.66960   0.81154   0.06961 
C          C       0.08040   0.06154   0.81961 
C          C       0.91960   0.93846   0.81961 
C          C       0.33040   0.18846   0.06961 
C          C       0.16960   0.31154   0.06961 
C          C       0.08040   0.56154   0.31961 
C          C       0.91960   0.43846   0.31961 
C          C       0.33040   0.68846   0.56961 
C          C       0.16960   0.81154   0.56961 
C          C       0.59708   0.07854   0.22213 
C          C       0.40292   0.92146   0.22213 
C          C       0.84708   0.17146   0.47213 
C          C       0.65292   0.32854   0.47213 
C          C       0.59708   0.57854   0.72213 
C          C       0.40292   0.42146   0.72213 
C          C       0.84708   0.67146   0.97213 
C          C       0.65292   0.82854   0.97213 
C          C       0.09708   0.07854   0.72213 
C          C       0.90292   0.92146   0.72213 
C          C       0.34708   0.17146   0.97213 
C          C       0.15292   0.32854   0.97213 
C          C       0.09708   0.57854   0.22213 
C          C       0.90292   0.42146   0.22213 
C          C       0.34708   0.67146   0.47213 
C          C       0.15292   0.82854   0.47213 
C          C       0.59089   0.10272   0.25536 
C          C       0.40911   0.89728   0.25536 
C          C       0.84089   0.14728   0.50536 
C          C       0.65911   0.35272   0.50536 
C          C       0.59089   0.60272   0.75536 
C          C       0.40911   0.39728   0.75536 
C          C       0.84089   0.64728   0.00536 
C          C       0.65911   0.85272   0.00536 
C          C       0.09089   0.10272   0.75536 
C          C       0.90911   0.89728   0.75536 
C          C       0.34089   0.14728   0.00536 
C          C       0.15911   0.35272   0.00536 
C          C       0.09089   0.60272   0.25536 
C          C       0.90911   0.39728   0.25536 
C          C       0.34089   0.64728   0.50536 
C          C       0.15911   0.85272   0.50536 
O          O       0.63146   0.12352   0.86496 
O          O       0.36854   0.87648   0.86496 
O          O       0.88146   0.12648   0.11496 
O          O       0.61854   0.37352   0.11496 
O          O       0.63146   0.62352   0.36496 
O          O       0.36854   0.37648   0.36496 
O          O       0.88146   0.62648   0.61496 
O          O       0.61854   0.87352   0.61496 
O          O       0.13146   0.12352   0.36496 
O          O       0.86854   0.87648   0.36496 
O          O       0.38146   0.12648   0.61496 
O          O       0.11854   0.37352   0.61496 
O          O       0.13146   0.62352   0.86496 
O          O       0.86854   0.37648   0.86496 
O          O       0.38146   0.62648   0.11496 
O          O       0.11854   0.87352   0.11496 
O          O       0.60510   0.11933   0.15107 
O          O       0.39490   0.88067   0.15107 
O          O       0.85510   0.13067   0.40107 
O          O       0.64490   0.36933   0.40107 
O          O       0.60510   0.61933   0.65107 
O          O       0.39490   0.38067   0.65107 
O          O       0.85510   0.63067   0.90107 
O          O       0.64490   0.86933   0.90107 
O          O       0.10510   0.11933   0.65107 
O          O       0.89490   0.88067   0.65107 
O          O       0.35510   0.13067   0.90107 
O          O       0.14490   0.36933   0.90107 
O          O       0.10510   0.61933   0.15107 
O          O       0.89490   0.38067   0.15107 
O          O       0.35510   0.63067   0.40107 
O          O       0.14490   0.86933   0.40107 
C          C       0.65794   0.21301   0.41952 
C          C       0.34206   0.78699   0.41952 
C          C       0.90794   0.03699   0.66952 
C          C       0.59206   0.46301   0.66952 
C          C       0.65794   0.71301   0.91952 
C          C       0.34206   0.28699   0.91952 
C          C       0.90794   0.53699   0.16952 
C          C       0.59206   0.96301   0.16952 
C          C       0.15794   0.21301   0.91952 
C          C       0.84206   0.78699   0.91952 
C          C       0.40794   0.03699   0.16952 
C          C       0.09206   0.46301   0.16952 
C          C       0.15794   0.71301   0.41952 
C          C       0.84206   0.28699   0.41952 
C          C       0.40794   0.53699   0.66952 
C          C       0.09206   0.96301   0.66952 
C          C       0.68538   0.19400   0.46473 
C          C       0.31462   0.80600   0.46473 
C          C       0.93538   0.05600   0.71473 
C          C       0.56462   0.44400   0.71473 
C          C       0.68538   0.69400   0.96473 
C          C       0.31462   0.30600   0.96473 
C          C       0.93538   0.55600   0.21473 
C          C       0.56462   0.94400   0.21473 
C          C       0.18538   0.19400   0.96473 
C          C       0.81462   0.80600   0.96473 
C          C       0.43538   0.05600   0.21473 
C          C       0.06462   0.44400   0.21473 
C          C       0.18538   0.69400   0.46473 
C          C       0.81462   0.30600   0.46473 
C          C       0.43538   0.55600   0.71473 
C          C       0.06462   0.94400   0.71473 
C          C       0.73117   0.19223   0.42237 
C          C       0.26883   0.80777   0.42237 
C          C       0.98117   0.05777   0.67237 
C          C       0.51883   0.44223   0.67237 
C          C       0.73117   0.69223   0.92237 
C          C       0.26883   0.30777   0.92237 
C          C       0.98117   0.55777   0.17237 
C          C       0.51883   0.94223   0.17237 
C          C       0.23117   0.19223   0.92237 
C          C       0.76883   0.80777   0.92237 
C          C       0.48117   0.05777   0.17237 
C          C       0.01883   0.44223   0.17237 
C          C       0.23117   0.69223   0.42237 
C          C       0.76883   0.30777   0.42237 
C          C       0.48117   0.55777   0.67237 
C          C       0.01883   0.94223   0.67237 
C          C       0.74927   0.21076   0.33765 
C          C       0.25073   0.78924   0.33765 
C          C       0.99927   0.03924   0.58765 
C          C       0.50073   0.46076   0.58765 
C          C       0.74927   0.71076   0.83765 
C          C       0.25073   0.28924   0.83765 
C          C       0.99927   0.53924   0.08765 
C          C       0.50073   0.96076   0.08765 
C          C       0.24927   0.21076   0.83765 
C          C       0.75073   0.78924   0.83765 
C          C       0.49927   0.03924   0.08765 
C          C       0.00073   0.46076   0.08765 
C          C       0.24927   0.71076   0.33765 
C          C       0.75073   0.28924   0.33765 
C          C       0.49927   0.53924   0.58765 
C          C       0.00073   0.96076   0.58765 
C          C       0.72138   0.22925   0.28931 
C          C       0.27862   0.77075   0.28931 
C          C       0.97138   0.02075   0.53931 
C          C       0.52862   0.47925   0.53931 
C          C       0.72138   0.72925   0.78931 
C          C       0.27862   0.27075   0.78931 
C          C       0.97138   0.52075   0.03931 
C          C       0.52862   0.97925   0.03931 
C          C       0.22138   0.22925   0.78931 
C          C       0.77862   0.77075   0.78931 
C          C       0.47138   0.02075   0.03931 
C          C       0.02862   0.47925   0.03931 
C          C       0.22138   0.72925   0.28931 
C          C       0.77862   0.27075   0.28931 
C          C       0.47138   0.52075   0.53931 
C          C       0.02862   0.97925   0.53931 
C          C       0.67542   0.23078   0.32928 
C          C       0.32458   0.76922   0.32928 
C          C       0.92542   0.01922   0.57928 
C          C       0.57458   0.48078   0.57928 
C          C       0.67542   0.73078   0.82928 
C          C       0.32458   0.26922   0.82928 
C          C       0.92542   0.51922   0.07928 
C          C       0.57458   0.98078   0.07928 
C          C       0.17542   0.23078   0.82928 
C          C       0.82458   0.76922   0.82928 
C          C       0.42542   0.01922   0.07928 
C          C       0.07458   0.48078   0.07928 
C          C       0.17542   0.73078   0.32928 
C          C       0.82458   0.26922   0.32928 
C          C       0.42542   0.51922   0.57928 
C          C       0.07458   0.98078   0.57928 
C          C       0.50270   0.05004   0.61019 
C          C       0.49730   0.94996   0.61019 
C          C       0.75270   0.19996   0.86019 
C          C       0.74730   0.30004   0.86019 
C          C       0.50270   0.55004   0.11019 
C          C       0.49730   0.44996   0.11019 
C          C       0.75270   0.69996   0.36019 
C          C       0.74730   0.80004   0.36019 
C          C       0.00270   0.05004   0.11019 
C          C       0.99730   0.94996   0.11019 
C          C       0.25270   0.19996   0.36019 
C          C       0.24730   0.30004   0.36019 
C          C       0.00270   0.55004   0.61019 
C          C       0.99730   0.44996   0.61019 
C          C       0.25270   0.69996   0.86019 
C          C       0.24730   0.80004   0.86019 
C          C       0.54720   0.04953   0.55783 
C          C       0.45280   0.95047   0.55783 
C          C       0.79720   0.20047   0.80783 
C          C       0.70280   0.29953   0.80783 
C          C       0.54720   0.54953   0.05783 
C          C       0.45280   0.45047   0.05783 
C          C       0.79720   0.70047   0.30783 
C          C       0.70280   0.79953   0.30783 
C          C       0.04720   0.04953   0.05783 
C          C       0.95280   0.95047   0.05783 
C          C       0.29720   0.20047   0.30783 
C          C       0.20280   0.29953   0.30783 
C          C       0.04720   0.54953   0.55783 
C          C       0.95280   0.45047   0.55783 
C          C       0.29720   0.70047   0.80783 
C          C       0.20280   0.79953   0.80783 
C          C       0.58009   0.03407   0.61695 
C          C       0.41991   0.96593   0.61695 
C          C       0.83009   0.21593   0.86695 
C          C       0.66991   0.28407   0.86695 
C          C       0.58009   0.53407   0.11695 
C          C       0.41991   0.46593   0.11695 
C          C       0.83009   0.71593   0.36695 
C          C       0.66991   0.78407   0.36695 
C          C       0.08009   0.03407   0.11695 
C          C       0.91991   0.96593   0.11695 
C          C       0.33009   0.21593   0.36695 
C          C       0.16991   0.28407   0.36695 
C          C       0.08009   0.53407   0.61695 
C          C       0.91991   0.46593   0.61695 
C          C       0.33009   0.71593   0.86695 
C          C       0.16991   0.78407   0.86695 
C          C       0.56749   0.01842   0.73014 
C          C       0.43251   0.98158   0.73014 
C          C       0.81749   0.23158   0.98014 
C          C       0.68251   0.26842   0.98014 
C          C       0.56749   0.51842   0.23014 
C          C       0.43251   0.48158   0.23014 
C          C       0.81749   0.73158   0.48014 
C          C       0.68251   0.76842   0.48014 
C          C       0.06749   0.01842   0.23014 
C          C       0.93251   0.98158   0.23014 
C          C       0.31749   0.23158   0.48014 
C          C       0.18251   0.26842   0.48014 
C          C       0.06749   0.51842   0.73014 
C          C       0.93251   0.48158   0.73014 
C          C       0.31749   0.73158   0.98014 
C          C       0.18251   0.76842   0.98014 
C          C       0.52297   0.02027   0.78434 
C          C       0.47703   0.97973   0.78434 
C          C       0.77297   0.22973   0.03434 
C          C       0.72703   0.27027   0.03434 
C          C       0.52297   0.52027   0.28434 
C          C       0.47703   0.47973   0.28434 
C          C       0.77297   0.72973   0.53434 
C          C       0.72703   0.77027   0.53434 
C          C       0.02297   0.02027   0.28434 
C          C       0.97703   0.97973   0.28434 
C          C       0.27297   0.22973   0.53434 
C          C       0.22703   0.27027   0.53434 
C          C       0.02297   0.52027   0.78434 
C          C       0.97703   0.47973   0.78434 
C          C       0.27297   0.72973   0.03434 
C          C       0.22703   0.77027   0.03434 
C          C       0.48877   0.03444   0.72103 
C          C       0.51123   0.96556   0.72103 
C          C       0.73877   0.21556   0.97103 
C          C       0.76123   0.28444   0.97103 
C          C       0.48877   0.53444   0.22103 
C          C       0.51123   0.46556   0.22103 
C          C       0.73877   0.71556   0.47103 
C          C       0.76123   0.78444   0.47103 
C          C       0.98877   0.03444   0.22103 
C          C       0.01123   0.96556   0.22103 
C          C       0.23877   0.21556   0.47103 
C          C       0.26123   0.28444   0.47103 
C          C       0.98877   0.53444   0.72103 
C          C       0.01123   0.46556   0.72103 
C          C       0.23877   0.71556   0.97103 
C          C       0.26123   0.78444   0.97103 
H          H       0.63417   0.16205   0.26439 
H          H       0.36583   0.83795   0.26439 
H          H       0.88417   0.08795   0.51439 
H          H       0.61583   0.41205   0.51439 
H          H       0.63417   0.66205   0.76439 
H          H       0.36583   0.33795   0.76439 
H          H       0.88417   0.58795   0.01439 
H          H       0.61583   0.91205   0.01439 
H          H       0.13417   0.16205   0.76439 
H          H       0.86583   0.83795   0.76439 
H          H       0.38417   0.08795   0.01439 
H          H       0.11583   0.41205   0.01439 
H          H       0.13417   0.66205   0.26439 
H          H       0.86583   0.33795   0.26439 
H          H       0.38417   0.58795   0.51439 
H          H       0.11583   0.91205   0.51439 
H          H       0.59827   0.18524   0.17637 
H          H       0.40173   0.81476   0.17637 
H          H       0.84827   0.06476   0.42637 
H          H       0.65173   0.43524   0.42637 
H          H       0.59827   0.68524   0.67637 
H          H       0.40173   0.31476   0.67637 
H          H       0.84827   0.56476   0.92637 
H          H       0.65173   0.93524   0.92637 
H          H       0.09827   0.18524   0.67637 
H          H       0.90173   0.81476   0.67637 
H          H       0.34827   0.06476   0.92637 
H          H       0.15173   0.43524   0.92637 
H          H       0.09827   0.68524   0.17637 
H          H       0.90173   0.31476   0.17637 
H          H       0.34827   0.56476   0.42637 
H          H       0.15173   0.93524   0.42637 
H          H       0.55120   0.14604   0.08394 
H          H       0.44880   0.85396   0.08394 
H          H       0.80120   0.10396   0.33394 
H          H       0.69880   0.39604   0.33394 
H          H       0.55120   0.64604   0.58394 
H          H       0.44880   0.35396   0.58394 
H          H       0.80120   0.60396   0.83394 
H          H       0.69880   0.89604   0.83394 
H          H       0.05120   0.14604   0.58394 
H          H       0.94880   0.85396   0.58394 
H          H       0.30120   0.10396   0.83394 
H          H       0.19880   0.39604   0.83394 
H          H       0.05120   0.64604   0.08394 
H          H       0.94880   0.35396   0.08394 
H          H       0.30120   0.60396   0.33394 
H          H       0.19880   0.89604   0.33394 
H          H       0.54082   0.16025   0.26452 
H          H       0.45918   0.83975   0.26452 
H          H       0.79082   0.08975   0.51452 
H          H       0.70918   0.41025   0.51452 
H          H       0.54082   0.66025   0.76452 
H          H       0.45918   0.33975   0.76452 
H          H       0.79082   0.58975   0.01452 
H          H       0.70918   0.91025   0.01452 
H          H       0.04082   0.16025   0.76452 
H          H       0.95918   0.83975   0.76452 
H          H       0.29082   0.08975   0.01452 
H          H       0.20918   0.41025   0.01452 
H          H       0.04082   0.66025   0.26452 
H          H       0.95918   0.33975   0.26452 
H          H       0.29082   0.58975   0.51452 
H          H       0.20918   0.91025   0.51452 
H          H       0.58332   0.18174   0.91826 
H          H       0.41668   0.81826   0.91826 
H          H       0.83332   0.06826   0.16826 
H          H       0.66668   0.43174   0.16826 
H          H       0.58332   0.68174   0.41826 
H          H       0.41668   0.31826   0.41826 
H          H       0.83332   0.56826   0.66826 
H          H       0.66668   0.93174   0.66826 
H          H       0.08332   0.18174   0.41826 
H          H       0.91668   0.81826   0.41826 
H          H       0.33332   0.06826   0.66826 
H          H       0.16668   0.43174   0.66826 
H          H       0.08332   0.68174   0.91826 
H          H       0.91668   0.31826   0.91826 
H          H       0.33332   0.56826   0.16826 
H          H       0.16668   0.93174   0.16826 
H          H       0.54300   0.14410   0.44374 
H          H       0.45700   0.85590   0.44374 
H          H       0.79300   0.10590   0.69374 
H          H       0.70700   0.39410   0.69374 
H          H       0.54300   0.64410   0.94374 
H          H       0.45700   0.35590   0.94374 
H          H       0.79300   0.60590   0.19374 
H          H       0.70700   0.89410   0.19374 
H          H       0.04300   0.14410   0.94374 
H          H       0.95700   0.85590   0.94374 
H          H       0.29300   0.10590   0.19374 
H          H       0.20700   0.39410   0.19374 
H          H       0.04300   0.64410   0.44374 
H          H       0.95700   0.35590   0.44374 
H          H       0.29300   0.60590   0.69374 
H          H       0.20700   0.89410   0.69374 
H          H       0.62853   0.19912   0.70487 
H          H       0.37147   0.80088   0.70487 
H          H       0.87853   0.05088   0.95487 
H          H       0.62147   0.44912   0.95487 
H          H       0.62853   0.69912   0.20487 
H          H       0.37147   0.30088   0.20487 
H          H       0.87853   0.55088   0.45487 
H          H       0.62147   0.94912   0.45487 
H          H       0.12853   0.19912   0.20487 
H          H       0.87147   0.80088   0.20487 
H          H       0.37853   0.05088   0.45487 
H          H       0.12147   0.44912   0.45487 
H          H       0.12853   0.69912   0.70487 
H          H       0.87147   0.30088   0.70487 
H          H       0.37853   0.55088   0.95487 
H          H       0.12147   0.94912   0.95487 
H          H       0.53201   0.09741   0.58812 
H          H       0.46799   0.90259   0.58812 
H          H       0.78201   0.15259   0.83812 
H          H       0.71799   0.34741   0.83812 
H          H       0.53201   0.59741   0.08812 
H          H       0.46799   0.40259   0.08812 
H          H       0.78201   0.65259   0.33812 
H          H       0.71799   0.84741   0.33812 
H          H       0.03201   0.09741   0.08812 
H          H       0.96799   0.90259   0.08812 
H          H       0.28201   0.15259   0.33812 
H          H       0.21799   0.34741   0.33812 
H          H       0.03201   0.59741   0.58812 
H          H       0.96799   0.40259   0.58812 
H          H       0.28201   0.65259   0.83812 
H          H       0.21799   0.84741   0.83812 
H          H       0.70458   0.14733   0.43182 
H          H       0.29542   0.85267   0.43182 
H          H       0.95458   0.10267   0.68182 
H          H       0.54542   0.39733   0.68182 
H          H       0.70458   0.64733   0.93182 
H          H       0.29542   0.35267   0.93182 
H          H       0.95458   0.60267   0.18182 
H          H       0.54542   0.89733   0.18182 
H          H       0.20458   0.14733   0.93182 
H          H       0.79542   0.85267   0.93182 
H          H       0.45458   0.10267   0.18182 
H          H       0.04542   0.39733   0.18182 
H          H       0.20458   0.64733   0.43182 
H          H       0.79542   0.35267   0.43182 
H          H       0.45458   0.60267   0.68182 
H          H       0.04542   0.89733   0.68182 
H          H       0.68695   0.11451   0.60760 
H          H       0.31305   0.88549   0.60760 
H          H       0.93695   0.13549   0.85760 
H          H       0.56305   0.36451   0.85760 
H          H       0.68695   0.61451   0.10760 
H          H       0.31305   0.38549   0.10760 
H          H       0.93695   0.63549   0.35760 
H          H       0.56305   0.86451   0.35760 
H          H       0.18695   0.11451   0.10760 
H          H       0.81305   0.88549   0.10760 
H          H       0.43695   0.13549   0.35760 
H          H       0.06305   0.36451   0.35760 
H          H       0.18695   0.61451   0.60760 
H          H       0.81305   0.38549   0.60760 
H          H       0.43695   0.63549   0.85760 
H          H       0.06305   0.86451   0.85760 
H          H       0.58366   0.04214   0.28541 
H          H       0.41634   0.95786   0.28541 
H          H       0.83366   0.20786   0.53541 
H          H       0.66634   0.29214   0.53541 
H          H       0.58366   0.54214   0.78541 
H          H       0.41634   0.45786   0.78541 
H          H       0.83366   0.70786   0.03541 
H          H       0.66634   0.79214   0.03541 
H          H       0.08366   0.04214   0.78541 
H          H       0.91634   0.95786   0.78541 
H          H       0.33366   0.20786   0.03541 
H          H       0.16634   0.29214   0.03541 
H          H       0.08366   0.54214   0.28541 
H          H       0.91634   0.45786   0.28541 
H          H       0.33366   0.70786   0.53541 
H          H       0.16634   0.79214   0.53541 
H          H       0.61531   0.07272   0.11792 
H          H       0.38469   0.92728   0.11792 
H          H       0.86531   0.17728   0.36792 
H          H       0.63469   0.32272   0.36792 
H          H       0.61531   0.57272   0.61792 
H          H       0.38469   0.42728   0.61792 
H          H       0.86531   0.67728   0.86792 
H          H       0.63469   0.82272   0.86792 
H          H       0.11531   0.07272   0.61792 
H          H       0.88469   0.92728   0.61792 
H          H       0.36531   0.17728   0.86792 
H          H       0.13469   0.32272   0.86792 
H          H       0.11531   0.57272   0.11792 
H          H       0.88469   0.42728   0.11792 
H          H       0.36531   0.67728   0.36792 
H          H       0.13469   0.82272   0.36792 
H          H       0.63746   0.13219   0.97245 
H          H       0.36254   0.86781   0.97245 
H          H       0.88746   0.11781   0.22245 
H          H       0.61254   0.38219   0.22245 
H          H       0.63746   0.63219   0.47245 
H          H       0.36254   0.36781   0.47245 
H          H       0.88746   0.61781   0.72245 
H          H       0.61254   0.88219   0.72245 
H          H       0.13746   0.13219   0.47245 
H          H       0.86254   0.86781   0.47245 
H          H       0.38746   0.11781   0.72245 
H          H       0.11254   0.38219   0.72245 
H          H       0.13746   0.63219   0.97245 
H          H       0.86254   0.36781   0.97245 
H          H       0.38746   0.61781   0.22245 
H          H       0.11254   0.88219   0.22245 
H          H       0.60989   0.13687   0.20449 
H          H       0.39011   0.86313   0.20449 
H          H       0.85989   0.11313   0.45449 
H          H       0.64011   0.38687   0.45449 
H          H       0.60989   0.63687   0.70449 
H          H       0.39011   0.36313   0.70449 
H          H       0.85989   0.61313   0.95449 
H          H       0.64011   0.88687   0.95449 
H          H       0.10989   0.13687   0.70449 
H          H       0.89011   0.86313   0.70449 
H          H       0.35989   0.11313   0.95449 
H          H       0.14011   0.38687   0.95449 
H          H       0.10989   0.63687   0.20449 
H          H       0.89011   0.36313   0.20449 
H          H       0.35989   0.61313   0.45449 
H          H       0.14011   0.88687   0.45449 
H          H       0.62093   0.21404   0.45656 
H          H       0.37907   0.78596   0.45656 
H          H       0.87093   0.03596   0.70656 
H          H       0.62907   0.46404   0.70656 
H          H       0.62093   0.71404   0.95656 
H          H       0.37907   0.28596   0.95656 
H          H       0.87093   0.53596   0.20656 
H          H       0.62907   0.96404   0.20656 
H          H       0.12093   0.21404   0.95656 
H          H       0.87907   0.78596   0.95656 
H          H       0.37093   0.03596   0.20656 
H          H       0.12907   0.46404   0.20656 
H          H       0.12093   0.71404   0.45656 
H          H       0.87907   0.28596   0.45656 
H          H       0.37093   0.53596   0.70656 
H          H       0.12907   0.96404   0.70656 
H          H       0.75221   0.17615   0.45682 
H          H       0.24779   0.82385   0.45682 
H          H       0.00221   0.07385   0.70682 
H          H       0.49779   0.42615   0.70682 
H          H       0.75221   0.67615   0.95682 
H          H       0.24779   0.32385   0.95682 
H          H       0.00221   0.57385   0.20682 
H          H       0.49779   0.92615   0.20682 
H          H       0.25221   0.17615   0.95682 
H          H       0.74779   0.82385   0.95682 
H          H       0.50221   0.07385   0.20682 
H          H       0.99779   0.42615   0.20682 
H          H       0.25221   0.67615   0.45682 
H          H       0.74779   0.32385   0.45682 
H          H       0.50221   0.57385   0.70682 
H          H       0.99779   0.92615   0.70682 
H          H       0.78697   0.21078   0.30792 
H          H       0.21303   0.78922   0.30792 
H          H       0.03697   0.03922   0.55792 
H          H       0.46303   0.46078   0.55792 
H          H       0.78697   0.71078   0.80792 
H          H       0.21303   0.28922   0.80792 
H          H       0.03697   0.53922   0.05792 
H          H       0.46303   0.96078   0.05792 
H          H       0.28697   0.21078   0.80792 
H          H       0.71303   0.78922   0.80792 
H          H       0.53697   0.03922   0.05792 
H          H       0.96303   0.46078   0.05792 
H          H       0.28697   0.71078   0.30792 
H          H       0.71303   0.28922   0.30792 
H          H       0.53697   0.53922   0.55792 
H          H       0.96303   0.96078   0.55792 
H          H       0.65249   0.24587   0.29063 
H          H       0.34751   0.75413   0.29063 
H          H       0.90249   0.00413   0.54063 
H          H       0.59751   0.49587   0.54063 
H          H       0.65249   0.74587   0.79063 
H          H       0.34751   0.25413   0.79063 
H          H       0.90249   0.50413   0.04063 
H          H       0.59751   0.99587   0.04063 
H          H       0.15249   0.24587   0.79063 
H          H       0.84751   0.75413   0.79063 
H          H       0.40249   0.00413   0.04063 
H          H       0.09751   0.49587   0.04063 
H          H       0.15249   0.74587   0.29063 
H          H       0.84751   0.25413   0.29063 
H          H       0.40249   0.50413   0.54063 
H          H       0.09751   0.99587   0.54063 
H          H       0.47721   0.06324   0.56286 
H          H       0.52279   0.93676   0.56286 
H          H       0.72721   0.18676   0.81286 
H          H       0.77279   0.31324   0.81286 
H          H       0.47721   0.56324   0.06286 
H          H       0.52279   0.43676   0.06286 
H          H       0.72721   0.68676   0.31286 
H          H       0.77279   0.81324   0.31286 
H          H       0.97721   0.06324   0.06286 
H          H       0.02279   0.93676   0.06286 
H          H       0.22721   0.18676   0.31286 
H          H       0.27279   0.31324   0.31286 
H          H       0.97721   0.56324   0.56286 
H          H       0.02279   0.43676   0.56286 
H          H       0.22721   0.68676   0.81286 
H          H       0.27279   0.81324   0.81286 
H          H       0.61642   0.03433   0.57311 
H          H       0.38358   0.96567   0.57311 
H          H       0.86642   0.21567   0.82311 
H          H       0.63358   0.28433   0.82311 
H          H       0.61642   0.53433   0.07311 
H          H       0.38358   0.46567   0.07311 
H          H       0.86642   0.71567   0.32311 
H          H       0.63358   0.78433   0.32311 
H          H       0.11642   0.03433   0.07311 
H          H       0.88358   0.96567   0.07311 
H          H       0.36642   0.21567   0.32311 
H          H       0.13358   0.28433   0.32311 
H          H       0.11642   0.53433   0.57311 
H          H       0.88358   0.46567   0.57311 
H          H       0.36642   0.71567   0.82311 
H          H       0.13358   0.78433   0.82311 
H          H       0.59310   0.00496   0.77394 
H          H       0.40690   0.99504   0.77394 
H          H       0.84310   0.24504   0.02394 
H          H       0.65690   0.25496   0.02394 
H          H       0.59310   0.50496   0.27394 
H          H       0.40690   0.49504   0.27394 
H          H       0.84310   0.74504   0.52394 
H          H       0.65690   0.75496   0.52394 
H          H       0.09310   0.00496   0.27394 
H          H       0.90690   0.99504   0.27394 
H          H       0.34310   0.24504   0.52394 
H          H       0.15690   0.25496   0.52394 
H          H       0.09310   0.50496   0.77394 
H          H       0.90690   0.49504   0.77394 
H          H       0.34310   0.74504   0.02394 
H          H       0.15690   0.75496   0.02394 
H          H       0.45146   0.03374   0.75519 
H          H       0.54854   0.96626   0.75519 
H          H       0.70146   0.21626   0.00519 
H          H       0.79854   0.28374   0.00519 
H          H       0.45146   0.53374   0.25519 
H          H       0.54854   0.46626   0.25519 
H          H       0.70146   0.71626   0.50519 
H          H       0.79854   0.78374   0.50519 
H          H       0.95146   0.03374   0.25519 
H          H       0.04854   0.96626   0.25519 
H          H       0.20146   0.21626   0.50519 
H          H       0.29854   0.28374   0.50519 
H          H       0.95146   0.53374   0.75519 
H          H       0.04854   0.46626   0.75519 
H          H       0.20146   0.71626   0.00519 
H          H       0.29854   0.78374   0.00519 
C          C       0.50000   0.50000   0.41826 
C          C       0.75000   0.75000   0.66826 
C          C       0.50000   0.00000   0.91826 
C          C       0.75000   0.25000   0.16826 
C          C       0.00000   0.50000   0.91826 
C          C       0.25000   0.75000   0.16826 
C          C       0.00000   0.00000   0.41826 
C          C       0.25000   0.25000   0.66826 
