data_crystal

_cell_length_a    29.80250
_cell_length_b    57.97220
_cell_length_c    9.31240
_cell_angle_alpha 90.00000
_cell_angle_beta  90.00000
_cell_angle_gamma 90.00000

_space_group_name_Hall 'P 1'
_space_group_name_H-M_alt  'P 1'

loop_
_symmetry_equiv_pos_as_xyz
'x,y,z' 

loop_
_atom_site_label
_atom_site_type_symbol
_atom_site_fract_x
_atom_site_fract_y
_atom_site_fract_z
C          C       0.60861   0.16573   0.17321 
C          C       0.39139   0.83427   0.17321 
C          C       0.85861   0.08427   0.42321 
C          C       0.64139   0.41573   0.42321 
C          C       0.60861   0.66573   0.67321 
C          C       0.39139   0.33427   0.67321 
C          C       0.85861   0.58427   0.92321 
C          C       0.64139   0.91573   0.92321 
C          C       0.10861   0.16573   0.67321 
C          C       0.89139   0.83427   0.67321 
C          C       0.35861   0.08427   0.92321 
C          C       0.14139   0.41573   0.92321 
C          C       0.10861   0.66573   0.17321 
C          C       0.89139   0.33427   0.17321 
C          C       0.35861   0.58427   0.42321 
C          C       0.14139   0.91573   0.42321 
C          C       0.56683   0.15028   0.19519 
C          C       0.43317   0.84972   0.19519 
C          C       0.81683   0.09972   0.44519 
C          C       0.68317   0.40028   0.44519 
C          C       0.56683   0.65028   0.69519 
C          C       0.43317   0.34972   0.69519 
C          C       0.81683   0.59972   0.94519 
C          C       0.68317   0.90028   0.94519 
C          C       0.06683   0.15028   0.69519 
C          C       0.93317   0.84972   0.69519 
C          C       0.31683   0.09972   0.94519 
C          C       0.18317   0.40028   0.94519 
C          C       0.06683   0.65028   0.19519 
C          C       0.93317   0.34972   0.19519 
C          C       0.31683   0.59972   0.44519 
C          C       0.18317   0.90028   0.44519 
C          C       0.61320   0.16882   0.91625 
C          C       0.38680   0.83118   0.91625 
C          C       0.86320   0.08118   0.16625 
C          C       0.63680   0.41882   0.16625 
C          C       0.61320   0.66882   0.41625 
C          C       0.38680   0.33118   0.41625 
C          C       0.86320   0.58118   0.66625 
C          C       0.63680   0.91882   0.66625 
C          C       0.11320   0.16882   0.41625 
C          C       0.88680   0.83118   0.41625 
C          C       0.36320   0.08118   0.66625 
C          C       0.13680   0.41882   0.66625 
C          C       0.11320   0.66882   0.91625 
C          C       0.88680   0.33118   0.91625 
C          C       0.36320   0.58118   0.16625 
C          C       0.13680   0.91882   0.16625 
N          N       0.62901   0.16062   0.03532 
N          N       0.37099   0.83938   0.03532 
N          N       0.87901   0.08938   0.28532 
N          N       0.62099   0.41062   0.28532 
N          N       0.62901   0.66062   0.53532 
N          N       0.37099   0.33938   0.53532 
N          N       0.87901   0.58938   0.78532 
N          N       0.62099   0.91062   0.78532 
N          N       0.12901   0.16062   0.53532 
N          N       0.87099   0.83938   0.53532 
N          N       0.37901   0.08938   0.78532 
N          N       0.12099   0.41062   0.78532 
N          N       0.12901   0.66062   0.03532 
N          N       0.87099   0.33938   0.03532 
N          N       0.37901   0.58938   0.28532 
N          N       0.12099   0.91062   0.28532 
C          C       0.56021   0.12990   0.37402 
C          C       0.43979   0.87010   0.37402 
C          C       0.81021   0.12010   0.62402 
C          C       0.68979   0.37990   0.62402 
C          C       0.56021   0.62990   0.87402 
C          C       0.43979   0.37010   0.87402 
C          C       0.81021   0.62010   0.12402 
C          C       0.68979   0.87990   0.12402 
C          C       0.06021   0.12990   0.87402 
C          C       0.93979   0.87010   0.87402 
C          C       0.31021   0.12010   0.12402 
C          C       0.18979   0.37990   0.12402 
C          C       0.06021   0.62990   0.37402 
C          C       0.93979   0.37010   0.37402 
C          C       0.31021   0.62010   0.62402 
C          C       0.18979   0.87990   0.62402 
N          N       0.57468   0.13503   0.24631 
N          N       0.42532   0.86497   0.24631 
N          N       0.82468   0.11497   0.49631 
N          N       0.67532   0.38503   0.49631 
N          N       0.57468   0.63503   0.74631 
N          N       0.42532   0.36497   0.74631 
N          N       0.82468   0.61497   0.99631 
N          N       0.67532   0.88503   0.99631 
N          N       0.07468   0.13503   0.74631 
N          N       0.92532   0.86497   0.74631 
N          N       0.32468   0.11497   0.99631 
N          N       0.17532   0.38503   0.99631 
N          N       0.07468   0.63503   0.24631 
N          N       0.92532   0.36497   0.24631 
N          N       0.32468   0.61497   0.49631 
N          N       0.17532   0.88503   0.49631 
C          C       0.63290   0.16185   0.77823 
C          C       0.36710   0.83815   0.77823 
C          C       0.88290   0.08815   0.02823 
C          C       0.61710   0.41185   0.02823 
C          C       0.63290   0.66185   0.27823 
C          C       0.36710   0.33815   0.27823 
C          C       0.88290   0.58815   0.52823 
C          C       0.61710   0.91185   0.52823 
C          C       0.13290   0.16185   0.27823 
C          C       0.86710   0.83815   0.27823 
C          C       0.38290   0.08815   0.52823 
C          C       0.11710   0.41185   0.52823 
C          C       0.13290   0.66185   0.77823 
C          C       0.86710   0.33815   0.77823 
C          C       0.38290   0.58815   0.02823 
C          C       0.11710   0.91185   0.02823 
C          C       0.64303   0.17938   0.68008 
C          C       0.35697   0.82062   0.68008 
C          C       0.89303   0.07062   0.93008 
C          C       0.60697   0.42938   0.93008 
C          C       0.64303   0.67938   0.18008 
C          C       0.35697   0.32062   0.18008 
C          C       0.89303   0.57062   0.43008 
C          C       0.60697   0.92938   0.43008 
C          C       0.14303   0.17938   0.18008 
C          C       0.85697   0.82062   0.18008 
C          C       0.39303   0.07062   0.43008 
C          C       0.10697   0.42938   0.43008 
C          C       0.14303   0.67938   0.68008 
C          C       0.85697   0.32062   0.68008 
C          C       0.39303   0.57062   0.93008 
C          C       0.10697   0.92938   0.93008 
C          C       0.57051   0.10706   0.38718 
C          C       0.42949   0.89294   0.38718 
C          C       0.82051   0.14294   0.63718 
C          C       0.67949   0.35706   0.63718 
C          C       0.57051   0.60706   0.88718 
C          C       0.42949   0.39294   0.88718 
C          C       0.82051   0.64294   0.13718 
C          C       0.67949   0.85706   0.13718 
C          C       0.07051   0.10706   0.88718 
C          C       0.92949   0.89294   0.88718 
C          C       0.32051   0.14294   0.13718 
C          C       0.17949   0.35706   0.13718 
C          C       0.07051   0.60706   0.38718 
C          C       0.92949   0.39294   0.38718 
C          C       0.32051   0.64294   0.63718 
C          C       0.17949   0.85706   0.63718 
C          C       0.55398   0.09099   0.48665 
C          C       0.44602   0.90901   0.48665 
C          C       0.80398   0.15901   0.73665 
C          C       0.69602   0.34099   0.73665 
C          C       0.55398   0.59099   0.98665 
C          C       0.44602   0.40901   0.98665 
C          C       0.80398   0.65901   0.23665 
C          C       0.69602   0.84099   0.23665 
C          C       0.05398   0.09099   0.98665 
C          C       0.94602   0.90901   0.98665 
C          C       0.30398   0.15901   0.23665 
C          C       0.19602   0.34099   0.23665 
C          C       0.05398   0.59099   0.48665 
C          C       0.94602   0.40901   0.48665 
C          C       0.30398   0.65901   0.73665 
C          C       0.19602   0.84099   0.73665 
C          C       0.66881   0.17501   0.55735 
C          C       0.33119   0.82499   0.55735 
C          C       0.91881   0.07499   0.80735 
C          C       0.58119   0.42501   0.80735 
C          C       0.66881   0.67501   0.05735 
C          C       0.33119   0.32499   0.05735 
C          C       0.91881   0.57499   0.30735 
C          C       0.58119   0.92501   0.30735 
C          C       0.16881   0.17501   0.05735 
C          C       0.83119   0.82499   0.05735 
C          C       0.41881   0.07499   0.30735 
C          C       0.08119   0.42501   0.30735 
C          C       0.16881   0.67501   0.55735 
C          C       0.83119   0.32499   0.55735 
C          C       0.41881   0.57499   0.80735 
C          C       0.08119   0.92501   0.80735 
C          C       0.68277   0.15218   0.53636 
C          C       0.31723   0.84782   0.53636 
C          C       0.93277   0.09782   0.78636 
C          C       0.56723   0.40218   0.78636 
C          C       0.68277   0.65218   0.03636 
C          C       0.31723   0.34782   0.03636 
C          C       0.93277   0.59782   0.28636 
C          C       0.56723   0.90218   0.28636 
C          C       0.18277   0.15218   0.03636 
C          C       0.81723   0.84782   0.03636 
C          C       0.43277   0.09782   0.28636 
C          C       0.06723   0.40218   0.28636 
C          C       0.18277   0.65218   0.53636 
C          C       0.81723   0.34782   0.53636 
C          C       0.43277   0.59782   0.78636 
C          C       0.06723   0.90218   0.78636 
C          C       0.67189   0.13400   0.62939 
C          C       0.32811   0.86600   0.62939 
C          C       0.92189   0.11600   0.87939 
C          C       0.57811   0.38400   0.87939 
C          C       0.67189   0.63400   0.12939 
C          C       0.32811   0.36600   0.12939 
C          C       0.92189   0.61600   0.37939 
C          C       0.57811   0.88400   0.37939 
C          C       0.17189   0.13400   0.12939 
C          C       0.82811   0.86600   0.12939 
C          C       0.42189   0.11600   0.37939 
C          C       0.07811   0.38400   0.37939 
C          C       0.17189   0.63400   0.62939 
C          C       0.82811   0.36600   0.62939 
C          C       0.42189   0.61600   0.87939 
C          C       0.07811   0.88400   0.87939 
C          C       0.64651   0.13901   0.75281 
C          C       0.35349   0.86099   0.75281 
C          C       0.89651   0.11099   0.00281 
C          C       0.60349   0.38901   0.00281 
C          C       0.64651   0.63901   0.25281 
C          C       0.35349   0.36099   0.25281 
C          C       0.89651   0.61099   0.50281 
C          C       0.60349   0.88901   0.50281 
C          C       0.14651   0.13901   0.25281 
C          C       0.85349   0.86099   0.25281 
C          C       0.39651   0.11099   0.50281 
C          C       0.10349   0.38901   0.50281 
C          C       0.14651   0.63901   0.75281 
C          C       0.85349   0.36099   0.75281 
C          C       0.39651   0.61099   0.00281 
C          C       0.10349   0.88901   0.00281 
C          C       0.56065   0.06762   0.45273 
C          C       0.43935   0.93238   0.45273 
C          C       0.81065   0.18238   0.70273 
C          C       0.68935   0.31762   0.70273 
C          C       0.56065   0.56762   0.95273 
C          C       0.43935   0.43238   0.95273 
C          C       0.81065   0.68238   0.20273 
C          C       0.68935   0.81762   0.20273 
C          C       0.06065   0.06762   0.95273 
C          C       0.93935   0.93238   0.95273 
C          C       0.31065   0.18238   0.20273 
C          C       0.18935   0.31762   0.20273 
C          C       0.06065   0.56762   0.45273 
C          C       0.93935   0.43238   0.45273 
C          C       0.31065   0.68238   0.70273 
C          C       0.18935   0.81762   0.70273 
C          C       0.57960   0.06205   0.31916 
C          C       0.42040   0.93795   0.31916 
C          C       0.82960   0.18795   0.56916 
C          C       0.67040   0.31205   0.56916 
C          C       0.57960   0.56205   0.81916 
C          C       0.42040   0.43795   0.81916 
C          C       0.82960   0.68795   0.06916 
C          C       0.67040   0.81205   0.06916 
C          C       0.07960   0.06205   0.81916 
C          C       0.92040   0.93795   0.81916 
C          C       0.32960   0.18795   0.06916 
C          C       0.17040   0.31205   0.06916 
C          C       0.07960   0.56205   0.31916 
C          C       0.92040   0.43795   0.31916 
C          C       0.32960   0.68795   0.56916 
C          C       0.17040   0.81205   0.56916 
C          C       0.59235   0.08028   0.23041 
C          C       0.40765   0.91972   0.23041 
C          C       0.84235   0.16972   0.48041 
C          C       0.65765   0.33028   0.48041 
C          C       0.59235   0.58028   0.73041 
C          C       0.40765   0.41972   0.73041 
C          C       0.84235   0.66972   0.98041 
C          C       0.65765   0.83028   0.98041 
C          C       0.09235   0.08028   0.73041 
C          C       0.90765   0.91972   0.73041 
C          C       0.34235   0.16972   0.98041 
C          C       0.15765   0.33028   0.98041 
C          C       0.09235   0.58028   0.23041 
C          C       0.90765   0.41972   0.23041 
C          C       0.34235   0.66972   0.48041 
C          C       0.15765   0.83028   0.48041 
C          C       0.59069   0.10413   0.25264 
C          C       0.40931   0.89587   0.25264 
C          C       0.84069   0.14587   0.50264 
C          C       0.65931   0.35413   0.50264 
C          C       0.59069   0.60413   0.75264 
C          C       0.40931   0.39587   0.75264 
C          C       0.84069   0.64587   0.00264 
C          C       0.65931   0.85413   0.00264 
C          C       0.09069   0.10413   0.75264 
C          C       0.90931   0.89587   0.75264 
C          C       0.34069   0.14587   0.00264 
C          C       0.15931   0.35413   0.00264 
C          C       0.09069   0.60413   0.25264 
C          C       0.90931   0.39587   0.25264 
C          C       0.34069   0.64587   0.50264 
C          C       0.15931   0.85413   0.50264 
O          O       0.63578   0.12224   0.85420 
O          O       0.36422   0.87776   0.85420 
O          O       0.88578   0.12776   0.10420 
O          O       0.61422   0.37224   0.10420 
O          O       0.63578   0.62224   0.35420 
O          O       0.36422   0.37776   0.35420 
O          O       0.88578   0.62776   0.60420 
O          O       0.61422   0.87224   0.60420 
O          O       0.13578   0.12224   0.35420 
O          O       0.86422   0.87776   0.35420 
O          O       0.38578   0.12776   0.60420 
O          O       0.11422   0.37224   0.60420 
O          O       0.13578   0.62224   0.85420 
O          O       0.86422   0.37776   0.85420 
O          O       0.38578   0.62776   0.10420 
O          O       0.11422   0.87224   0.10420 
O          O       0.60507   0.12075   0.15369 
O          O       0.39493   0.87925   0.15369 
O          O       0.85507   0.12925   0.40369 
O          O       0.64493   0.37075   0.40369 
O          O       0.60507   0.62075   0.65369 
O          O       0.39493   0.37925   0.65369 
O          O       0.85507   0.62925   0.90369 
O          O       0.64493   0.87075   0.90369 
O          O       0.10507   0.12075   0.65369 
O          O       0.89493   0.87925   0.65369 
O          O       0.35507   0.12925   0.90369 
O          O       0.14493   0.37075   0.90369 
O          O       0.10507   0.62075   0.15369 
O          O       0.89493   0.37925   0.15369 
O          O       0.35507   0.62925   0.40369 
O          O       0.14493   0.87075   0.40369 
C          C       0.65928   0.21284   0.41938 
C          C       0.34072   0.78716   0.41938 
C          C       0.90928   0.03716   0.66938 
C          C       0.59072   0.46284   0.66938 
C          C       0.65928   0.71284   0.91938 
C          C       0.34072   0.28716   0.91938 
C          C       0.90928   0.53716   0.16938 
C          C       0.59072   0.96284   0.16938 
C          C       0.15928   0.21284   0.91938 
C          C       0.84072   0.78716   0.91938 
C          C       0.40928   0.03716   0.16938 
C          C       0.09072   0.46284   0.16938 
C          C       0.15928   0.71284   0.41938 
C          C       0.84072   0.28716   0.41938 
C          C       0.40928   0.53716   0.66938 
C          C       0.09072   0.96284   0.66938 
C          C       0.68538   0.19400   0.46473 
C          C       0.31462   0.80600   0.46473 
C          C       0.93538   0.05600   0.71473 
C          C       0.56462   0.44400   0.71473 
C          C       0.68538   0.69400   0.96473 
C          C       0.31462   0.30600   0.96473 
C          C       0.93538   0.55600   0.21473 
C          C       0.56462   0.94400   0.21473 
C          C       0.18538   0.19400   0.96473 
C          C       0.81462   0.80600   0.96473 
C          C       0.43538   0.05600   0.21473 
C          C       0.06462   0.44400   0.21473 
C          C       0.18538   0.69400   0.46473 
C          C       0.81462   0.30600   0.46473 
C          C       0.43538   0.55600   0.71473 
C          C       0.06462   0.94400   0.71473 
C          C       0.73008   0.19303   0.42244 
C          C       0.26992   0.80697   0.42244 
C          C       0.98008   0.05697   0.67244 
C          C       0.51992   0.44303   0.67244 
C          C       0.73008   0.69303   0.92244 
C          C       0.26992   0.30697   0.92244 
C          C       0.98008   0.55697   0.17244 
C          C       0.51992   0.94303   0.17244 
C          C       0.23008   0.19303   0.92244 
C          C       0.76992   0.80697   0.92244 
C          C       0.48008   0.05697   0.17244 
C          C       0.01992   0.44303   0.17244 
C          C       0.23008   0.69303   0.42244 
C          C       0.76992   0.30697   0.42244 
C          C       0.48008   0.55697   0.67244 
C          C       0.01992   0.94303   0.67244 
C          C       0.74795   0.21079   0.33782 
C          C       0.25205   0.78921   0.33782 
C          C       0.99795   0.03921   0.58782 
C          C       0.50205   0.46079   0.58782 
C          C       0.74795   0.71079   0.83782 
C          C       0.25205   0.28921   0.83782 
C          C       0.99795   0.53921   0.08782 
C          C       0.50205   0.96079   0.08782 
C          C       0.24795   0.21079   0.83782 
C          C       0.75205   0.78921   0.83782 
C          C       0.49795   0.03921   0.08782 
C          C       0.00205   0.46079   0.08782 
C          C       0.24795   0.71079   0.33782 
C          C       0.75205   0.28921   0.33782 
C          C       0.49795   0.53921   0.58782 
C          C       0.00205   0.96079   0.58782 
C          C       0.72138   0.22925   0.28931 
C          C       0.27862   0.77075   0.28931 
C          C       0.97138   0.02075   0.53931 
C          C       0.52862   0.47925   0.53931 
C          C       0.72138   0.72925   0.78931 
C          C       0.27862   0.27075   0.78931 
C          C       0.97138   0.52075   0.03931 
C          C       0.52862   0.97925   0.03931 
C          C       0.22138   0.22925   0.78931 
C          C       0.77862   0.77075   0.78931 
C          C       0.47138   0.02075   0.03931 
C          C       0.02862   0.47925   0.03931 
C          C       0.22138   0.72925   0.28931 
C          C       0.77862   0.27075   0.28931 
C          C       0.47138   0.52075   0.53931 
C          C       0.02862   0.97925   0.53931 
C          C       0.67627   0.23033   0.33098 
C          C       0.32373   0.76967   0.33098 
C          C       0.92627   0.01967   0.58098 
C          C       0.57373   0.48033   0.58098 
C          C       0.67627   0.73033   0.83098 
C          C       0.32373   0.26967   0.83098 
C          C       0.92627   0.51967   0.08098 
C          C       0.57373   0.98033   0.08098 
C          C       0.17627   0.23033   0.83098 
C          C       0.82373   0.76967   0.83098 
C          C       0.42627   0.01967   0.08098 
C          C       0.07373   0.48033   0.08098 
C          C       0.17627   0.73033   0.33098 
C          C       0.82373   0.26967   0.33098 
C          C       0.42627   0.51967   0.58098 
C          C       0.07373   0.98033   0.58098 
C          C       0.50375   0.05008   0.61115 
C          C       0.49625   0.94992   0.61115 
C          C       0.75375   0.19992   0.86115 
C          C       0.74625   0.30008   0.86115 
C          C       0.50375   0.55008   0.11115 
C          C       0.49625   0.44992   0.11115 
C          C       0.75375   0.69992   0.36115 
C          C       0.74625   0.80008   0.36115 
C          C       0.00375   0.05008   0.11115 
C          C       0.99625   0.94992   0.11115 
C          C       0.25375   0.19992   0.36115 
C          C       0.24625   0.30008   0.36115 
C          C       0.00375   0.55008   0.61115 
C          C       0.99625   0.44992   0.61115 
C          C       0.25375   0.69992   0.86115 
C          C       0.24625   0.80008   0.86115 
C          C       0.54767   0.04940   0.55789 
C          C       0.45233   0.95060   0.55789 
C          C       0.79767   0.20060   0.80789 
C          C       0.70233   0.29940   0.80789 
C          C       0.54767   0.54940   0.05789 
C          C       0.45233   0.45060   0.05789 
C          C       0.79767   0.70060   0.30789 
C          C       0.70233   0.79940   0.30789 
C          C       0.04767   0.04940   0.05789 
C          C       0.95233   0.95060   0.05789 
C          C       0.29767   0.20060   0.30789 
C          C       0.20233   0.29940   0.30789 
C          C       0.04767   0.54940   0.55789 
C          C       0.95233   0.45060   0.55789 
C          C       0.29767   0.70060   0.80789 
C          C       0.20233   0.79940   0.80789 
C          C       0.57855   0.03386   0.61629 
C          C       0.42145   0.96614   0.61629 
C          C       0.82855   0.21614   0.86629 
C          C       0.67145   0.28386   0.86629 
C          C       0.57855   0.53386   0.11629 
C          C       0.42145   0.46614   0.11629 
C          C       0.82855   0.71614   0.36629 
C          C       0.67145   0.78386   0.36629 
C          C       0.07855   0.03386   0.11629 
C          C       0.92145   0.96614   0.11629 
C          C       0.32855   0.21614   0.36629 
C          C       0.17145   0.28386   0.36629 
C          C       0.07855   0.53386   0.61629 
C          C       0.92145   0.46614   0.61629 
C          C       0.32855   0.71614   0.86629 
C          C       0.17145   0.78386   0.86629 
C          C       0.56669   0.01918   0.72973 
C          C       0.43331   0.98082   0.72973 
C          C       0.81669   0.23082   0.97973 
C          C       0.68331   0.26918   0.97973 
C          C       0.56669   0.51918   0.22973 
C          C       0.43331   0.48082   0.22973 
C          C       0.81669   0.73082   0.47973 
C          C       0.68331   0.76918   0.47973 
C          C       0.06669   0.01918   0.22973 
C          C       0.93331   0.98082   0.22973 
C          C       0.31669   0.23082   0.47973 
C          C       0.18331   0.26918   0.47973 
C          C       0.06669   0.51918   0.72973 
C          C       0.93331   0.48082   0.72973 
C          C       0.31669   0.73082   0.97973 
C          C       0.18331   0.76918   0.97973 
C          C       0.52297   0.02027   0.78434 
C          C       0.47703   0.97973   0.78434 
C          C       0.77297   0.22973   0.03434 
C          C       0.72703   0.27027   0.03434 
C          C       0.52297   0.52027   0.28434 
C          C       0.47703   0.47973   0.28434 
C          C       0.77297   0.72973   0.53434 
C          C       0.72703   0.77027   0.53434 
C          C       0.02297   0.02027   0.28434 
C          C       0.97703   0.97973   0.28434 
C          C       0.27297   0.22973   0.53434 
C          C       0.22703   0.27027   0.53434 
C          C       0.02297   0.52027   0.78434 
C          C       0.97703   0.47973   0.78434 
C          C       0.27297   0.72973   0.03434 
C          C       0.22703   0.77027   0.03434 
C          C       0.49125   0.03530   0.72427 
C          C       0.50875   0.96470   0.72427 
C          C       0.74125   0.21470   0.97427 
C          C       0.75875   0.28530   0.97427 
C          C       0.49125   0.53530   0.22427 
C          C       0.50875   0.46470   0.22427 
C          C       0.74125   0.71470   0.47427 
C          C       0.75875   0.78530   0.47427 
C          C       0.99125   0.03530   0.22427 
C          C       0.00875   0.96470   0.22427 
C          C       0.24125   0.21470   0.47427 
C          C       0.25875   0.28530   0.47427 
C          C       0.99125   0.53530   0.72427 
C          C       0.00875   0.46470   0.72427 
C          C       0.24125   0.71470   0.97427 
C          C       0.25875   0.78530   0.97427 
H          H       0.63388   0.16226   0.26254 
H          H       0.36612   0.83774   0.26254 
H          H       0.88388   0.08774   0.51254 
H          H       0.61612   0.41226   0.51254 
H          H       0.63388   0.66226   0.76254 
H          H       0.36612   0.33774   0.76254 
H          H       0.88388   0.58774   0.01254 
H          H       0.61612   0.91226   0.01254 
H          H       0.13388   0.16226   0.76254 
H          H       0.86612   0.83774   0.76254 
H          H       0.38388   0.08774   0.01254 
H          H       0.11612   0.41226   0.01254 
H          H       0.13388   0.66226   0.26254 
H          H       0.86612   0.33774   0.26254 
H          H       0.38388   0.58774   0.51254 
H          H       0.11612   0.91226   0.51254 
H          H       0.59815   0.18464   0.17614 
H          H       0.40185   0.81536   0.17614 
H          H       0.84815   0.06536   0.42614 
H          H       0.65185   0.43464   0.42614 
H          H       0.59815   0.68464   0.67614 
H          H       0.40185   0.31536   0.67614 
H          H       0.84815   0.56536   0.92614 
H          H       0.65185   0.93464   0.92614 
H          H       0.09815   0.18464   0.67614 
H          H       0.90185   0.81536   0.67614 
H          H       0.34815   0.06536   0.92614 
H          H       0.15185   0.43464   0.92614 
H          H       0.09815   0.68464   0.17614 
H          H       0.90185   0.31536   0.17614 
H          H       0.34815   0.56536   0.42614 
H          H       0.15185   0.93464   0.42614 
H          H       0.55139   0.14622   0.08607 
H          H       0.44861   0.85378   0.08607 
H          H       0.80139   0.10378   0.33607 
H          H       0.69861   0.39622   0.33607 
H          H       0.55139   0.64622   0.58607 
H          H       0.44861   0.35378   0.58607 
H          H       0.80139   0.60378   0.83607 
H          H       0.69861   0.89622   0.83607 
H          H       0.05139   0.14622   0.58607 
H          H       0.94861   0.85378   0.58607 
H          H       0.30139   0.10378   0.83607 
H          H       0.19861   0.39622   0.83607 
H          H       0.05139   0.64622   0.08607 
H          H       0.94861   0.35378   0.08607 
H          H       0.30139   0.60378   0.33607 
H          H       0.19861   0.89622   0.33607 
H          H       0.54111   0.15985   0.26348 
H          H       0.45889   0.84015   0.26348 
H          H       0.79111   0.09015   0.51348 
H          H       0.70889   0.40985   0.51348 
H          H       0.54111   0.65985   0.76348 
H          H       0.45889   0.34015   0.76348 
H          H       0.79111   0.59015   0.01348 
H          H       0.70889   0.90985   0.01348 
H          H       0.04111   0.15985   0.76348 
H          H       0.95889   0.84015   0.76348 
H          H       0.29111   0.09015   0.01348 
H          H       0.20889   0.40985   0.01348 
H          H       0.04111   0.65985   0.26348 
H          H       0.95889   0.34015   0.26348 
H          H       0.29111   0.59015   0.51348 
H          H       0.20889   0.90985   0.51348 
H          H       0.58393   0.18148   0.91834 
H          H       0.41607   0.81852   0.91834 
H          H       0.83393   0.06852   0.16834 
H          H       0.66607   0.43148   0.16834 
H          H       0.58393   0.68148   0.41834 
H          H       0.41607   0.31852   0.41834 
H          H       0.83393   0.56852   0.66834 
H          H       0.66607   0.93148   0.66834 
H          H       0.08393   0.18148   0.41834 
H          H       0.91607   0.81852   0.41834 
H          H       0.33393   0.06852   0.66834 
H          H       0.16607   0.43148   0.66834 
H          H       0.08393   0.68148   0.91834 
H          H       0.91607   0.31852   0.91834 
H          H       0.33393   0.56852   0.16834 
H          H       0.16607   0.93148   0.16834 
H          H       0.54361   0.14371   0.44314 
H          H       0.45639   0.85629   0.44314 
H          H       0.79361   0.10629   0.69314 
H          H       0.70639   0.39371   0.69314 
H          H       0.54361   0.64371   0.94314 
H          H       0.45639   0.35629   0.94314 
H          H       0.79361   0.60629   0.19314 
H          H       0.70639   0.89371   0.19314 
H          H       0.04361   0.14371   0.94314 
H          H       0.95639   0.85629   0.94314 
H          H       0.29361   0.10629   0.19314 
H          H       0.20639   0.39371   0.19314 
H          H       0.04361   0.64371   0.44314 
H          H       0.95639   0.35629   0.44314 
H          H       0.29361   0.60629   0.69314 
H          H       0.20639   0.89371   0.69314 
H          H       0.63023   0.19765   0.69927 
H          H       0.36977   0.80235   0.69927 
H          H       0.88023   0.05235   0.94927 
H          H       0.61977   0.44765   0.94927 
H          H       0.63023   0.69765   0.19927 
H          H       0.36977   0.30235   0.19927 
H          H       0.88023   0.55235   0.44927 
H          H       0.61977   0.94765   0.44927 
H          H       0.13023   0.19765   0.19927 
H          H       0.86977   0.80235   0.19927 
H          H       0.38023   0.05235   0.44927 
H          H       0.11977   0.44765   0.44927 
H          H       0.13023   0.69765   0.69927 
H          H       0.86977   0.30235   0.69927 
H          H       0.38023   0.55235   0.94927 
H          H       0.11977   0.94765   0.94927 
H          H       0.53632   0.09719   0.58814 
H          H       0.46368   0.90281   0.58814 
H          H       0.78632   0.15281   0.83814 
H          H       0.71368   0.34719   0.83814 
H          H       0.53632   0.59719   0.08814 
H          H       0.46368   0.40281   0.08814 
H          H       0.78632   0.65281   0.33814 
H          H       0.71368   0.84719   0.33814 
H          H       0.03632   0.09719   0.08814 
H          H       0.96368   0.90281   0.08814 
H          H       0.28632   0.15281   0.33814 
H          H       0.21368   0.34719   0.33814 
H          H       0.03632   0.59719   0.58814 
H          H       0.96368   0.40281   0.58814 
H          H       0.28632   0.65281   0.83814 
H          H       0.21368   0.84719   0.83814 
H          H       0.70421   0.14755   0.43919 
H          H       0.29579   0.85245   0.43919 
H          H       0.95421   0.10245   0.68919 
H          H       0.54579   0.39755   0.68919 
H          H       0.70421   0.64755   0.93919 
H          H       0.29579   0.35245   0.93919 
H          H       0.95421   0.60245   0.18919 
H          H       0.54579   0.89755   0.18919 
H          H       0.20421   0.14755   0.93919 
H          H       0.79579   0.85245   0.93919 
H          H       0.45421   0.10245   0.18919 
H          H       0.04579   0.39755   0.18919 
H          H       0.20421   0.64755   0.43919 
H          H       0.79579   0.35245   0.43919 
H          H       0.45421   0.60245   0.68919 
H          H       0.04579   0.89755   0.68919 
H          H       0.68359   0.11573   0.60405 
H          H       0.31641   0.88427   0.60405 
H          H       0.93359   0.13427   0.85405 
H          H       0.56641   0.36573   0.85405 
H          H       0.68359   0.61573   0.10405 
H          H       0.31641   0.38427   0.10405 
H          H       0.93359   0.63427   0.35405 
H          H       0.56641   0.86573   0.35405 
H          H       0.18359   0.11573   0.10405 
H          H       0.81641   0.88427   0.10405 
H          H       0.43359   0.13427   0.35405 
H          H       0.06641   0.36573   0.35405 
H          H       0.18359   0.61573   0.60405 
H          H       0.81641   0.38427   0.60405 
H          H       0.43359   0.63427   0.85405 
H          H       0.06641   0.86573   0.85405 
H          H       0.58402   0.04321   0.28700 
H          H       0.41598   0.95679   0.28700 
H          H       0.83402   0.20679   0.53700 
H          H       0.66598   0.29321   0.53700 
H          H       0.58402   0.54321   0.78700 
H          H       0.41598   0.45679   0.78700 
H          H       0.83402   0.70679   0.03700 
H          H       0.66598   0.79321   0.03700 
H          H       0.08402   0.04321   0.78700 
H          H       0.91598   0.95679   0.78700 
H          H       0.33402   0.20679   0.03700 
H          H       0.16598   0.29321   0.03700 
H          H       0.08402   0.54321   0.28700 
H          H       0.91598   0.45679   0.28700 
H          H       0.33402   0.70679   0.53700 
H          H       0.16598   0.79321   0.53700 
H          H       0.60687   0.07663   0.11946 
H          H       0.39313   0.92337   0.11946 
H          H       0.85687   0.17337   0.36946 
H          H       0.64313   0.32663   0.36946 
H          H       0.60687   0.57663   0.61946 
H          H       0.39313   0.42337   0.61946 
H          H       0.85687   0.67337   0.86946 
H          H       0.64313   0.82663   0.86946 
H          H       0.10687   0.07663   0.61946 
H          H       0.89313   0.92337   0.61946 
H          H       0.35687   0.17337   0.86946 
H          H       0.14313   0.32663   0.86946 
H          H       0.10687   0.57663   0.11946 
H          H       0.89313   0.42337   0.11946 
H          H       0.35687   0.67337   0.36946 
H          H       0.14313   0.82663   0.36946 
H          H       0.63075   0.13052   0.96046 
H          H       0.36925   0.86948   0.96046 
H          H       0.88075   0.11948   0.21046 
H          H       0.61925   0.38052   0.21046 
H          H       0.63075   0.63052   0.46046 
H          H       0.36925   0.36948   0.46046 
H          H       0.88075   0.61948   0.71046 
H          H       0.61925   0.88052   0.71046 
H          H       0.13075   0.13052   0.46046 
H          H       0.86925   0.86948   0.46046 
H          H       0.38075   0.11948   0.71046 
H          H       0.11925   0.38052   0.71046 
H          H       0.13075   0.63052   0.96046 
H          H       0.86925   0.36948   0.96046 
H          H       0.38075   0.61948   0.21046 
H          H       0.11925   0.88052   0.21046 
H          H       0.60643   0.13788   0.20682 
H          H       0.39357   0.86212   0.20682 
H          H       0.85643   0.11212   0.45682 
H          H       0.64357   0.38788   0.45682 
H          H       0.60643   0.63788   0.70682 
H          H       0.39357   0.36212   0.70682 
H          H       0.85643   0.61212   0.95682 
H          H       0.64357   0.88788   0.95682 
H          H       0.10643   0.13788   0.70682 
H          H       0.89357   0.86212   0.70682 
H          H       0.35643   0.11212   0.95682 
H          H       0.14357   0.38788   0.95682 
H          H       0.10643   0.63788   0.20682 
H          H       0.89357   0.36212   0.20682 
H          H       0.35643   0.61212   0.45682 
H          H       0.14357   0.88788   0.45682 
H          H       0.62275   0.21431   0.45459 
H          H       0.37725   0.78569   0.45459 
H          H       0.87275   0.03569   0.70459 
H          H       0.62725   0.46431   0.70459 
H          H       0.62275   0.71431   0.95459 
H          H       0.37725   0.28569   0.95459 
H          H       0.87275   0.53569   0.20459 
H          H       0.62725   0.96431   0.20459 
H          H       0.12275   0.21431   0.95459 
H          H       0.87725   0.78569   0.95459 
H          H       0.37275   0.03569   0.20459 
H          H       0.12725   0.46431   0.20459 
H          H       0.12275   0.71431   0.45459 
H          H       0.87725   0.28569   0.45459 
H          H       0.37275   0.53569   0.70459 
H          H       0.12725   0.96431   0.70459 
H          H       0.75195   0.17786   0.45658 
H          H       0.24805   0.82214   0.45658 
H          H       0.00195   0.07214   0.70658 
H          H       0.49805   0.42786   0.70658 
H          H       0.75195   0.67786   0.95658 
H          H       0.24805   0.32214   0.95658 
H          H       0.00195   0.57214   0.20658 
H          H       0.49805   0.92786   0.20658 
H          H       0.25195   0.17786   0.95658 
H          H       0.74805   0.82214   0.95658 
H          H       0.50195   0.07214   0.20658 
H          H       0.99805   0.42786   0.20658 
H          H       0.25195   0.67786   0.45658 
H          H       0.74805   0.32214   0.45658 
H          H       0.50195   0.57214   0.70658 
H          H       0.99805   0.92786   0.70658 
H          H       0.78493   0.21050   0.30662 
H          H       0.21507   0.78950   0.30662 
H          H       0.03493   0.03950   0.55662 
H          H       0.46507   0.46050   0.55662 
H          H       0.78493   0.71050   0.80662 
H          H       0.21507   0.28950   0.80662 
H          H       0.03493   0.53950   0.05662 
H          H       0.46507   0.96050   0.05662 
H          H       0.28493   0.21050   0.80662 
H          H       0.71507   0.78950   0.80662 
H          H       0.53493   0.03950   0.05662 
H          H       0.96507   0.46050   0.05662 
H          H       0.28493   0.71050   0.30662 
H          H       0.71507   0.28950   0.30662 
H          H       0.53493   0.53950   0.55662 
H          H       0.96507   0.96050   0.55662 
H          H       0.65351   0.24502   0.29458 
H          H       0.34649   0.75498   0.29458 
H          H       0.90351   0.00498   0.54458 
H          H       0.59649   0.49502   0.54458 
H          H       0.65351   0.74502   0.79458 
H          H       0.34649   0.25498   0.79458 
H          H       0.90351   0.50498   0.04458 
H          H       0.59649   0.99502   0.04458 
H          H       0.15351   0.24502   0.79458 
H          H       0.84649   0.75498   0.79458 
H          H       0.40351   0.00498   0.04458 
H          H       0.09649   0.49502   0.04458 
H          H       0.15351   0.74502   0.29458 
H          H       0.84649   0.25498   0.29458 
H          H       0.40351   0.50498   0.54458 
H          H       0.09649   0.99502   0.54458 
H          H       0.47831   0.06256   0.56294 
H          H       0.52169   0.93744   0.56294 
H          H       0.72831   0.18744   0.81294 
H          H       0.77169   0.31256   0.81294 
H          H       0.47831   0.56256   0.06294 
H          H       0.52169   0.43744   0.06294 
H          H       0.72831   0.68744   0.31294 
H          H       0.77169   0.81256   0.31294 
H          H       0.97831   0.06256   0.06294 
H          H       0.02169   0.93744   0.06294 
H          H       0.22831   0.18744   0.31294 
H          H       0.27169   0.31256   0.31294 
H          H       0.97831   0.56256   0.56294 
H          H       0.02169   0.43744   0.56294 
H          H       0.22831   0.68744   0.81294 
H          H       0.27169   0.81256   0.81294 
H          H       0.61413   0.03296   0.57169 
H          H       0.38587   0.96704   0.57169 
H          H       0.86413   0.21704   0.82169 
H          H       0.63587   0.28296   0.82169 
H          H       0.61413   0.53296   0.07169 
H          H       0.38587   0.46704   0.07169 
H          H       0.86413   0.71704   0.32169 
H          H       0.63587   0.78296   0.32169 
H          H       0.11413   0.03296   0.07169 
H          H       0.88587   0.96704   0.07169 
H          H       0.36413   0.21704   0.32169 
H          H       0.13587   0.28296   0.32169 
H          H       0.11413   0.53296   0.57169 
H          H       0.88587   0.46704   0.57169 
H          H       0.36413   0.71704   0.82169 
H          H       0.13587   0.78296   0.82169 
H          H       0.59245   0.00666   0.77574 
H          H       0.40755   0.99334   0.77574 
H          H       0.84245   0.24334   0.02574 
H          H       0.65755   0.25666   0.02574 
H          H       0.59245   0.50666   0.27574 
H          H       0.40755   0.49334   0.27574 
H          H       0.84245   0.74334   0.52574 
H          H       0.65755   0.75666   0.52574 
H          H       0.09245   0.00666   0.27574 
H          H       0.90755   0.99334   0.27574 
H          H       0.34245   0.24334   0.52574 
H          H       0.15755   0.25666   0.52574 
H          H       0.09245   0.50666   0.77574 
H          H       0.90755   0.49334   0.77574 
H          H       0.34245   0.74334   0.02574 
H          H       0.15755   0.75666   0.02574 
H          H       0.45540   0.03557   0.76687 
H          H       0.54460   0.96443   0.76687 
H          H       0.70540   0.21443   0.01687 
H          H       0.79460   0.28557   0.01687 
H          H       0.45540   0.53557   0.26687 
H          H       0.54460   0.46443   0.26687 
H          H       0.70540   0.71443   0.51687 
H          H       0.79460   0.78557   0.51687 
H          H       0.95540   0.03557   0.26687 
H          H       0.04460   0.96443   0.26687 
H          H       0.20540   0.21443   0.51687 
H          H       0.29460   0.28557   0.51687 
H          H       0.95540   0.53557   0.76687 
H          H       0.04460   0.46443   0.76687 
H          H       0.20540   0.71443   0.01687 
H          H       0.29460   0.78557   0.01687 
Si         Si      0.50000   0.50000   0.41826 
Si         Si      0.75000   0.75000   0.66826 
Si         Si      0.50000   0.00000   0.91826 
Si         Si      0.75000   0.25000   0.16826 
Si         Si      0.00000   0.50000   0.91826 
Si         Si      0.25000   0.75000   0.16826 
Si         Si      0.00000   0.00000   0.41826 
Si         Si      0.25000   0.25000   0.66826 
