data_crystal
 
_cell_length_a    29.67640
_cell_length_b    56.86460
_cell_length_c    9.15830
_cell_angle_alpha 90.00000
_cell_angle_beta  90.00000
_cell_angle_gamma 90.00000
 
_symmetry_space_group_name_Hall 'P 1'
_symmetry_space_group_name_H-M  'P 1'
 
loop_
_symmetry_equiv_pos_as_xyz
 'x,y,z' 
 
loop_
_atom_site_label
_atom_site_type_symbol
_atom_site_fract_x
_atom_site_fract_y
_atom_site_fract_z
C          C       0.97321   0.64969   0.72556 
C          C       0.02679   0.35031   0.72556 
C          C       0.22321   0.60031   0.97556 
C          C       0.27679   0.89969   0.97556 
C          C       0.97321   0.14969   0.22556 
C          C       0.02679   0.85031   0.22556 
C          C       0.22321   0.10031   0.47556 
C          C       0.27679   0.39969   0.47556 
C          C       0.47321   0.64969   0.22556 
C          C       0.52679   0.35031   0.22556 
C          C       0.72321   0.60031   0.47556 
C          C       0.77679   0.89969   0.47556 
C          C       0.47321   0.14969   0.72556 
C          C       0.52679   0.85031   0.72556 
C          C       0.72321   0.10031   0.97556 
C          C       0.77679   0.39969   0.97556 
C          C       0.94485   0.66952   0.79138 
C          C       0.05515   0.33048   0.79138 
C          C       0.19485   0.58048   0.04138 
C          C       0.30515   0.91952   0.04138 
C          C       0.94485   0.16952   0.29138 
C          C       0.05515   0.83048   0.29138 
C          C       0.19485   0.08048   0.54138 
C          C       0.30515   0.41952   0.54138 
C          C       0.44485   0.66952   0.29138 
C          C       0.55515   0.33048   0.29138 
C          C       0.69485   0.58048   0.54138 
C          C       0.80515   0.91952   0.54138 
C          C       0.44485   0.16952   0.79138 
C          C       0.55515   0.83048   0.79138 
C          C       0.69485   0.08048   0.04138 
C          C       0.80515   0.41952   0.04138 
C          C       0.95071   0.61321   0.61576 
C          C       0.04929   0.38679   0.61576 
C          C       0.20071   0.63679   0.86576 
C          C       0.29929   0.86321   0.86576 
C          C       0.95071   0.11321   0.11576 
C          C       0.04929   0.88679   0.11576 
C          C       0.20071   0.13679   0.36576 
C          C       0.29929   0.36321   0.36576 
C          C       0.45071   0.61321   0.11576 
C          C       0.54929   0.38679   0.11576 
C          C       0.70071   0.63679   0.36576 
C          C       0.79929   0.86321   0.36576 
C          C       0.45071   0.11321   0.61576 
C          C       0.54929   0.88679   0.61576 
C          C       0.70071   0.13679   0.86576 
C          C       0.79929   0.36321   0.86576 
N          N       0.94618   0.62828   0.72034 
N          N       0.05382   0.37172   0.72034 
N          N       0.19618   0.62172   0.97034 
N          N       0.30382   0.87828   0.97034 
N          N       0.94618   0.12828   0.22034 
N          N       0.05382   0.87172   0.22034 
N          N       0.19618   0.12172   0.47034 
N          N       0.30382   0.37828   0.47034 
N          N       0.44618   0.62828   0.22034 
N          N       0.55382   0.37172   0.22034 
N          N       0.69618   0.62172   0.47034 
N          N       0.80382   0.87828   0.47034 
N          N       0.44618   0.12828   0.72034 
N          N       0.55382   0.87172   0.72034 
N          N       0.69618   0.12172   0.97034 
N          N       0.80382   0.37828   0.97034 
C          C       0.90167   0.67438   0.01190 
C          C       0.09833   0.32562   0.01190 
C          C       0.15167   0.57562   0.26190 
C          C       0.34833   0.92438   0.26190 
C          C       0.90167   0.17438   0.51190 
C          C       0.09833   0.82562   0.51190 
C          C       0.15167   0.07562   0.76190 
C          C       0.34833   0.42438   0.76190 
C          C       0.40167   0.67438   0.51190 
C          C       0.59833   0.32562   0.51190 
C          C       0.65167   0.57562   0.76190 
C          C       0.84833   0.92438   0.76190 
C          C       0.40167   0.17438   0.01190 
C          C       0.59833   0.82562   0.01190 
C          C       0.65167   0.07562   0.26190 
C          C       0.84833   0.42438   0.26190 
N          N       0.91657   0.66056   0.91035 
N          N       0.08343   0.33944   0.91035 
N          N       0.16657   0.58944   0.16035 
N          N       0.33343   0.91056   0.16035 
N          N       0.91657   0.16056   0.41035 
N          N       0.08343   0.83944   0.41035 
N          N       0.16657   0.08944   0.66035 
N          N       0.33343   0.41056   0.66035 
N          N       0.41657   0.66056   0.41035 
N          N       0.58343   0.33944   0.41035 
N          N       0.66657   0.58944   0.66035 
N          N       0.83343   0.91056   0.66035 
N          N       0.41657   0.16056   0.91035 
N          N       0.58343   0.83944   0.91035 
N          N       0.66657   0.08944   0.16035 
N          N       0.83343   0.41056   0.16035 
C          C       0.92722   0.59052   0.61024 
C          C       0.07278   0.40948   0.61024 
C          C       0.17722   0.65948   0.86024 
C          C       0.32278   0.84052   0.86024 
C          C       0.92722   0.09052   0.11024 
C          C       0.07278   0.90948   0.11024 
C          C       0.17722   0.15948   0.36024 
C          C       0.32278   0.34052   0.36024 
C          C       0.42722   0.59052   0.11024 
C          C       0.57278   0.40948   0.11024 
C          C       0.67722   0.65948   0.36024 
C          C       0.82278   0.84052   0.36024 
C          C       0.42722   0.09052   0.61024 
C          C       0.57278   0.90948   0.61024 
C          C       0.67722   0.15948   0.86024 
C          C       0.82278   0.34052   0.86024 
C          C       0.93767   0.57617   0.49002 
C          C       0.06233   0.42383   0.49002 
C          C       0.18767   0.67383   0.74002 
C          C       0.31233   0.82617   0.74002 
C          C       0.93767   0.07617   0.99002 
C          C       0.06233   0.92383   0.99002 
C          C       0.18767   0.17383   0.24002 
C          C       0.31233   0.32617   0.24002 
C          C       0.43767   0.57617   0.99002 
C          C       0.56233   0.42383   0.99002 
C          C       0.68767   0.67383   0.24002 
C          C       0.81233   0.82617   0.24002 
C          C       0.43767   0.07617   0.49002 
C          C       0.56233   0.92383   0.49002 
C          C       0.68767   0.17383   0.74002 
C          C       0.81233   0.32617   0.74002 
C          C       0.87224   0.66702   0.13371 
C          C       0.12776   0.33298   0.13371 
C          C       0.12224   0.58298   0.38371 
C          C       0.37776   0.91702   0.38371 
C          C       0.87224   0.16702   0.63371 
C          C       0.12776   0.83298   0.63371 
C          C       0.12224   0.08298   0.88371 
C          C       0.37776   0.41702   0.88371 
C          C       0.37224   0.66702   0.63371 
C          C       0.62776   0.33298   0.63371 
C          C       0.62224   0.58298   0.88371 
C          C       0.87776   0.91702   0.88371 
C          C       0.37224   0.16702   0.13371 
C          C       0.62776   0.83298   0.13371 
C          C       0.62224   0.08298   0.38371 
C          C       0.87776   0.41702   0.38371 
C          C       0.86100   0.68423   0.23747 
C          C       0.13900   0.31577   0.23747 
C          C       0.11100   0.56577   0.48747 
C          C       0.38900   0.93423   0.48747 
C          C       0.86100   0.18423   0.73747 
C          C       0.13900   0.81577   0.73747 
C          C       0.11100   0.06577   0.98747 
C          C       0.38900   0.43423   0.98747 
C          C       0.36100   0.68423   0.73747 
C          C       0.63900   0.31577   0.73747 
C          C       0.61100   0.56577   0.98747 
C          C       0.88900   0.93423   0.98747 
C          C       0.36100   0.18423   0.23747 
C          C       0.63900   0.81577   0.23747 
C          C       0.61100   0.06577   0.48747 
C          C       0.88900   0.43423   0.48747 
C          C       0.91957   0.55368   0.46700 
C          C       0.08043   0.44632   0.46700 
C          C       0.16957   0.69632   0.71700 
C          C       0.33043   0.80368   0.71700 
C          C       0.91957   0.05368   0.96700 
C          C       0.08043   0.94632   0.96700 
C          C       0.16957   0.19632   0.21700 
C          C       0.33043   0.30368   0.21700 
C          C       0.41957   0.55368   0.96700 
C          C       0.58043   0.44632   0.96700 
C          C       0.66957   0.69632   0.21700 
C          C       0.83043   0.80368   0.21700 
C          C       0.41957   0.05368   0.46700 
C          C       0.58043   0.94632   0.46700 
C          C       0.66957   0.19632   0.71700 
C          C       0.83043   0.30368   0.71700 
C          C       0.89155   0.54519   0.57904 
C          C       0.10845   0.45481   0.57904 
C          C       0.14155   0.70481   0.82904 
C          C       0.35845   0.79519   0.82904 
C          C       0.89155   0.04519   0.07904 
C          C       0.10845   0.95481   0.07904 
C          C       0.14155   0.20481   0.32904 
C          C       0.35845   0.29519   0.32904 
C          C       0.39155   0.54519   0.07904 
C          C       0.60845   0.45481   0.07904 
C          C       0.64155   0.70481   0.32904 
C          C       0.85845   0.79519   0.32904 
C          C       0.39155   0.04519   0.57904 
C          C       0.60845   0.95481   0.57904 
C          C       0.64155   0.20481   0.82904 
C          C       0.85845   0.29519   0.82904 
C          C       0.88032   0.55920   0.69910 
C          C       0.11968   0.44080   0.69910 
C          C       0.13032   0.69080   0.94910 
C          C       0.36968   0.80920   0.94910 
C          C       0.88032   0.05920   0.19910 
C          C       0.11968   0.94080   0.19910 
C          C       0.13032   0.19080   0.44910 
C          C       0.36968   0.30920   0.44910 
C          C       0.38032   0.55920   0.19910 
C          C       0.61968   0.44080   0.19910 
C          C       0.63032   0.69080   0.44910 
C          C       0.86968   0.80920   0.44910 
C          C       0.38032   0.05920   0.69910 
C          C       0.61968   0.94080   0.69910 
C          C       0.63032   0.19080   0.94910 
C          C       0.86968   0.30920   0.94910 
C          C       0.89731   0.58200   0.71746 
C          C       0.10269   0.41800   0.71746 
C          C       0.14731   0.66800   0.96746 
C          C       0.35269   0.83200   0.96746 
C          C       0.89731   0.08200   0.21746 
C          C       0.10269   0.91800   0.21746 
C          C       0.14731   0.16800   0.46746 
C          C       0.35269   0.33200   0.46746 
C          C       0.39731   0.58200   0.21746 
C          C       0.60269   0.41800   0.21746 
C          C       0.64731   0.66800   0.46746 
C          C       0.85269   0.83200   0.46746 
C          C       0.39731   0.08200   0.71746 
C          C       0.60269   0.91800   0.71746 
C          C       0.64731   0.16800   0.96746 
C          C       0.85269   0.33200   0.96746 
C          C       0.83167   0.67963   0.35496 
C          C       0.16833   0.32037   0.35496 
C          C       0.08167   0.57037   0.60496 
C          C       0.41833   0.92963   0.60496 
C          C       0.83167   0.17963   0.85496 
C          C       0.16833   0.82037   0.85496 
C          C       0.08167   0.07037   0.10496 
C          C       0.41833   0.42963   0.10496 
C          C       0.33167   0.67963   0.85496 
C          C       0.66833   0.32037   0.85496 
C          C       0.58167   0.57037   0.10496 
C          C       0.91833   0.92963   0.10496 
C          C       0.33167   0.17963   0.35496 
C          C       0.66833   0.82037   0.35496 
C          C       0.58167   0.07037   0.60496 
C          C       0.91833   0.42963   0.60496 
C          C       0.81430   0.65701   0.36989 
C          C       0.18570   0.34299   0.36989 
C          C       0.06430   0.59299   0.61989 
C          C       0.43570   0.90701   0.61989 
C          C       0.81430   0.15701   0.86989 
C          C       0.18570   0.84299   0.86989 
C          C       0.06430   0.09299   0.11989 
C          C       0.43570   0.40701   0.11989 
C          C       0.31430   0.65701   0.86989 
C          C       0.68570   0.34299   0.86989 
C          C       0.56430   0.59299   0.11989 
C          C       0.93570   0.90701   0.11989 
C          C       0.31430   0.15701   0.36989 
C          C       0.68570   0.84299   0.36989 
C          C       0.56430   0.09299   0.61989 
C          C       0.93570   0.40701   0.61989 
C          C       0.82549   0.63960   0.26797 
C          C       0.17451   0.36040   0.26797 
C          C       0.07549   0.61040   0.51797 
C          C       0.42451   0.88960   0.51797 
C          C       0.82549   0.13960   0.76797 
C          C       0.17451   0.86040   0.76797 
C          C       0.07549   0.11040   0.01797 
C          C       0.42451   0.38960   0.01797 
C          C       0.32549   0.63960   0.76797 
C          C       0.67451   0.36040   0.76797 
C          C       0.57549   0.61040   0.01797 
C          C       0.92451   0.88960   0.01797 
C          C       0.32549   0.13960   0.26797 
C          C       0.67451   0.86040   0.26797 
C          C       0.57549   0.11040   0.51797 
C          C       0.92451   0.38960   0.51797 
C          C       0.85353   0.64435   0.14884 
C          C       0.14647   0.35565   0.14884 
C          C       0.10353   0.60565   0.39884 
C          C       0.39647   0.89435   0.39884 
C          C       0.85353   0.14435   0.64884 
C          C       0.14647   0.85565   0.64884 
C          C       0.10353   0.10565   0.89884 
C          C       0.39647   0.39435   0.89884 
C          C       0.35353   0.64435   0.64884 
C          C       0.64647   0.35565   0.64884 
C          C       0.60353   0.60565   0.89884 
C          C       0.89647   0.89435   0.89884 
C          C       0.35353   0.14435   0.14884 
C          C       0.64647   0.85565   0.14884 
C          C       0.60353   0.10565   0.39884 
C          C       0.89647   0.39435   0.39884 
O          O       0.85908   0.62608   0.04817 
O          O       0.14092   0.37392   0.04817 
O          O       0.10908   0.62392   0.29817 
O          O       0.39092   0.87608   0.29817 
O          O       0.85908   0.12608   0.54817 
O          O       0.14092   0.87392   0.54817 
O          O       0.10908   0.12392   0.79817 
O          O       0.39092   0.37608   0.79817 
O          O       0.35908   0.62608   0.54817 
O          O       0.64092   0.37392   0.54817 
O          O       0.60908   0.62392   0.79817 
O          O       0.89092   0.87608   0.79817 
O          O       0.35908   0.12608   0.04817 
O          O       0.64092   0.87392   0.04817 
O          O       0.60908   0.12392   0.29817 
O          O       0.89092   0.37608   0.29817 
C          C       0.94763   0.55224   0.21288 
C          C       0.05237   0.44776   0.21288 
C          C       0.19763   0.69776   0.46288 
C          C       0.30237   0.80224   0.46288 
C          C       0.94763   0.05224   0.71288 
C          C       0.05237   0.94776   0.71288 
C          C       0.19763   0.19776   0.96288 
C          C       0.30237   0.30224   0.96288 
C          C       0.44763   0.55224   0.71288 
C          C       0.55237   0.44776   0.71288 
C          C       0.69763   0.69776   0.96288 
C          C       0.80237   0.80224   0.96288 
C          C       0.44763   0.05224   0.21288 
C          C       0.55237   0.94776   0.21288 
C          C       0.69763   0.19776   0.46288 
C          C       0.80237   0.30224   0.46288 
C          C       0.93564   0.54168   0.34579 
C          C       0.06436   0.45832   0.34579 
C          C       0.18564   0.70832   0.59579 
C          C       0.31436   0.79168   0.59579 
C          C       0.93564   0.04168   0.84579 
C          C       0.06436   0.95832   0.84579 
C          C       0.18564   0.20832   0.09579 
C          C       0.31436   0.29168   0.09579 
C          C       0.43564   0.54168   0.84579 
C          C       0.56436   0.45832   0.84579 
C          C       0.68564   0.70832   0.09579 
C          C       0.81436   0.79168   0.09579 
C          C       0.43564   0.04168   0.34579 
C          C       0.56436   0.95832   0.34579 
C          C       0.68564   0.20832   0.59579 
C          C       0.81436   0.29168   0.59579 
C          C       0.93934   0.51715   0.35503 
C          C       0.06066   0.48285   0.35503 
C          C       0.18934   0.73285   0.60503 
C          C       0.31066   0.76715   0.60503 
C          C       0.93934   0.01715   0.85503 
C          C       0.06066   0.98285   0.85503 
C          C       0.18934   0.23285   0.10503 
C          C       0.31066   0.26715   0.10503 
C          C       0.43934   0.51715   0.85503 
C          C       0.56066   0.48285   0.85503 
C          C       0.68934   0.73285   0.10503 
C          C       0.81066   0.76715   0.10503 
C          C       0.43934   0.01715   0.35503 
C          C       0.56066   0.98285   0.35503 
C          C       0.68934   0.23285   0.60503 
C          C       0.81066   0.26715   0.60503 
C          C       0.95797   0.50405   0.23948 
C          C       0.04203   0.49595   0.23948 
C          C       0.20797   0.74595   0.48948 
C          C       0.29203   0.75405   0.48948 
C          C       0.95797   0.00405   0.73948 
C          C       0.04203   0.99595   0.73948 
C          C       0.20797   0.24595   0.98948 
C          C       0.29203   0.25405   0.98948 
C          C       0.45797   0.50405   0.73948 
C          C       0.54203   0.49595   0.73948 
C          C       0.70797   0.74595   0.98948 
C          C       0.79203   0.75405   0.98948 
C          C       0.45797   0.00405   0.23948 
C          C       0.54203   0.99595   0.23948 
C          C       0.70797   0.24595   0.48948 
C          C       0.79203   0.25405   0.48948 
C          C       0.97590   0.51504   0.11322 
C          C       0.02410   0.48496   0.11322 
C          C       0.22590   0.73496   0.36322 
C          C       0.27410   0.76504   0.36322 
C          C       0.97590   0.01504   0.61322 
C          C       0.02410   0.98496   0.61322 
C          C       0.22590   0.23496   0.86322 
C          C       0.27410   0.26504   0.86322 
C          C       0.47590   0.51504   0.61322 
C          C       0.52410   0.48496   0.61322 
C          C       0.72590   0.73496   0.86322 
C          C       0.77410   0.76504   0.86322 
C          C       0.47590   0.01504   0.11322 
C          C       0.52410   0.98496   0.11322 
C          C       0.72590   0.23496   0.36322 
C          C       0.77410   0.26504   0.36322 
C          C       0.96800   0.53943   0.10067 
C          C       0.03200   0.46057   0.10067 
C          C       0.21800   0.71057   0.35067 
C          C       0.28200   0.78943   0.35067 
C          C       0.96800   0.03943   0.60067 
C          C       0.03200   0.96057   0.60067 
C          C       0.21800   0.21057   0.85067 
C          C       0.28200   0.28943   0.85067 
C          C       0.46800   0.53943   0.60067 
C          C       0.53200   0.46057   0.60067 
C          C       0.71800   0.71057   0.85067 
C          C       0.78200   0.78943   0.85067 
C          C       0.46800   0.03943   0.10067 
C          C       0.53200   0.96057   0.10067 
C          C       0.71800   0.21057   0.35067 
C          C       0.78200   0.28943   0.35067 
C          C       0.83928   0.70903   0.56137 
C          C       0.16072   0.29097   0.56137 
C          C       0.08928   0.54097   0.81137 
C          C       0.41072   0.95903   0.81137 
C          C       0.83928   0.20903   0.06137 
C          C       0.16072   0.79097   0.06137 
C          C       0.08928   0.04097   0.31137 
C          C       0.41072   0.45903   0.31137 
C          C       0.33928   0.70903   0.06137 
C          C       0.66072   0.29097   0.06137 
C          C       0.58928   0.54097   0.31137 
C          C       0.91072   0.95903   0.31137 
C          C       0.33928   0.20903   0.56137 
C          C       0.66072   0.79097   0.56137 
C          C       0.58928   0.04097   0.81137 
C          C       0.91072   0.45903   0.81137 
C          C       0.81400   0.69865   0.44978 
C          C       0.18600   0.30135   0.44978 
C          C       0.06400   0.55135   0.69978 
C          C       0.43600   0.94865   0.69978 
C          C       0.81400   0.19865   0.94978 
C          C       0.18600   0.80135   0.94978 
C          C       0.06400   0.05135   0.19978 
C          C       0.43600   0.44865   0.19978 
C          C       0.31400   0.69865   0.94978 
C          C       0.68600   0.30135   0.94978 
C          C       0.56400   0.55135   0.19978 
C          C       0.93600   0.94865   0.19978 
C          C       0.31400   0.19865   0.44978 
C          C       0.68600   0.80135   0.44978 
C          C       0.56400   0.05135   0.69978 
C          C       0.93600   0.44865   0.69978 
C          C       0.76928   0.70597   0.43088 
C          C       0.23072   0.29403   0.43088 
C          C       0.01928   0.54403   0.68088 
C          C       0.48072   0.95597   0.68088 
C          C       0.76928   0.20597   0.93088 
C          C       0.23072   0.79403   0.93088 
C          C       0.01928   0.04403   0.18088 
C          C       0.48072   0.45597   0.18088 
C          C       0.26928   0.70597   0.93088 
C          C       0.73072   0.29403   0.93088 
C          C       0.51928   0.54403   0.18088 
C          C       0.98072   0.95597   0.18088 
C          C       0.26928   0.20597   0.43088 
C          C       0.73072   0.79403   0.43088 
C          C       0.51928   0.04403   0.68088 
C          C       0.98072   0.45597   0.68088 
C          C       0.75038   0.72252   0.52576 
C          C       0.24962   0.27748   0.52576 
C          C       0.00038   0.52748   0.77576 
C          C       0.49962   0.97252   0.77576 
C          C       0.75038   0.22252   0.02576 
C          C       0.24962   0.77748   0.02576 
C          C       0.00038   0.02748   0.27576 
C          C       0.49962   0.47252   0.27576 
C          C       0.25038   0.72252   0.02576 
C          C       0.74962   0.27748   0.02576 
C          C       0.50038   0.52748   0.27576 
C          C       0.99962   0.97252   0.27576 
C          C       0.25038   0.22252   0.52576 
C          C       0.74962   0.77748   0.52576 
C          C       0.50038   0.02748   0.77576 
C          C       0.99962   0.47252   0.77576 
C          C       0.77467   0.73229   0.64196 
C          C       0.22533   0.26771   0.64196 
C          C       0.02467   0.51771   0.89196 
C          C       0.47533   0.98229   0.89196 
C          C       0.77467   0.23229   0.14196 
C          C       0.22533   0.76771   0.14196 
C          C       0.02467   0.01771   0.39196 
C          C       0.47533   0.48229   0.39196 
C          C       0.27467   0.73229   0.14196 
C          C       0.72533   0.26771   0.14196 
C          C       0.52467   0.51771   0.39196 
C          C       0.97533   0.98229   0.39196 
C          C       0.27467   0.23229   0.64196 
C          C       0.72533   0.76771   0.64196 
C          C       0.52467   0.01771   0.89196 
C          C       0.97533   0.48229   0.89196 
C          C       0.81960   0.72533   0.65662 
C          C       0.18040   0.27467   0.65662 
C          C       0.06960   0.52467   0.90662 
C          C       0.43040   0.97533   0.90662 
C          C       0.81960   0.22533   0.15662 
C          C       0.18040   0.77467   0.15662 
C          C       0.06960   0.02467   0.40662 
C          C       0.43040   0.47533   0.40662 
C          C       0.31960   0.72533   0.15662 
C          C       0.68040   0.27467   0.15662 
C          C       0.56960   0.52467   0.40662 
C          C       0.93040   0.97533   0.40662 
C          C       0.31960   0.22533   0.65662 
C          C       0.68040   0.77467   0.65662 
C          C       0.56960   0.02467   0.90662 
C          C       0.93040   0.47533   0.90662 
O          O       0.88495   0.59412   0.84341 
O          O       0.11505   0.40588   0.84341 
O          O       0.13495   0.65588   0.09341 
O          O       0.36505   0.84412   0.09341 
O          O       0.88495   0.09412   0.34341 
O          O       0.11505   0.90588   0.34341 
O          O       0.13495   0.15588   0.59341 
O          O       0.36505   0.34412   0.59341 
O          O       0.38495   0.59412   0.34341 
O          O       0.61505   0.40588   0.34341 
O          O       0.63495   0.65588   0.59341 
O          O       0.86505   0.84412   0.59341 
O          O       0.38495   0.09412   0.84341 
O          O       0.61505   0.90588   0.84341 
O          O       0.63495   0.15588   0.09341 
O          O       0.86505   0.34412   0.09341 
Zn         Zn      0.64771   0.62370   0.63034 
Zn         Zn      0.35229   0.37630   0.63034 
Zn         Zn      0.89771   0.62630   0.88034 
Zn         Zn      0.60229   0.87370   0.88034 
Zn         Zn      0.64771   0.12370   0.13034 
Zn         Zn      0.35229   0.87630   0.13034 
Zn         Zn      0.89771   0.12630   0.38034 
Zn         Zn      0.60229   0.37370   0.38034 
Zn         Zn      0.14771   0.62370   0.13034 
Zn         Zn      0.85229   0.37630   0.13034 
Zn         Zn      0.39771   0.62630   0.38034 
Zn         Zn      0.10229   0.87370   0.38034 
Zn         Zn      0.14771   0.12370   0.63034 
Zn         Zn      0.85229   0.87630   0.63034 
Zn         Zn      0.39771   0.12630   0.88034 
Zn         Zn      0.10229   0.37370   0.88034 
H          H       0.00428   0.64660   0.79622 
H          H       0.99572   0.35340   0.79622 
H          H       0.25428   0.60340   0.04622 
H          H       0.24572   0.89660   0.04622 
H          H       0.00428   0.14660   0.29622 
H          H       0.99572   0.85340   0.29622 
H          H       0.25428   0.10340   0.54622 
H          H       0.24572   0.39660   0.54622 
H          H       0.50428   0.64660   0.29622 
H          H       0.49572   0.35340   0.29622 
H          H       0.75428   0.60340   0.54622 
H          H       0.74572   0.89660   0.54622 
H          H       0.50428   0.14660   0.79622 
H          H       0.49572   0.85340   0.79622 
H          H       0.75428   0.10340   0.04622 
H          H       0.74572   0.39660   0.04622 
H          H       0.98411   0.65477   0.61044 
H          H       0.01589   0.34523   0.61044 
H          H       0.23411   0.59523   0.86044 
H          H       0.26589   0.90477   0.86044 
H          H       0.98411   0.15477   0.11044 
H          H       0.01589   0.84523   0.11044 
H          H       0.23411   0.09523   0.36044 
H          H       0.26589   0.40477   0.36044 
H          H       0.48411   0.65477   0.11044 
H          H       0.51589   0.34523   0.11044 
H          H       0.73411   0.59523   0.36044 
H          H       0.76589   0.90477   0.36044 
H          H       0.48411   0.15477   0.61044 
H          H       0.51589   0.84523   0.61044 
H          H       0.73411   0.09523   0.86044 
H          H       0.76589   0.40477   0.86044 
H          H       0.92243   0.67739   0.70292 
H          H       0.07757   0.32261   0.70292 
H          H       0.17243   0.57261   0.95292 
H          H       0.32757   0.92739   0.95292 
H          H       0.92243   0.17739   0.20292 
H          H       0.07757   0.82261   0.20292 
H          H       0.17243   0.07261   0.45292 
H          H       0.32757   0.42739   0.45292 
H          H       0.42243   0.67739   0.20292 
H          H       0.57757   0.32261   0.20292 
H          H       0.67243   0.57261   0.45292 
H          H       0.82757   0.92739   0.45292 
H          H       0.42243   0.17739   0.70292 
H          H       0.57757   0.82261   0.70292 
H          H       0.67243   0.07261   0.95292 
H          H       0.82757   0.42739   0.95292 
H          H       0.96806   0.68376   0.83632 
H          H       0.03194   0.31624   0.83632 
H          H       0.21806   0.56624   0.08632 
H          H       0.28194   0.93376   0.08632 
H          H       0.96806   0.18376   0.33632 
H          H       0.03194   0.81624   0.33632 
H          H       0.21806   0.06624   0.58632 
H          H       0.28194   0.43376   0.58632 
H          H       0.46806   0.68376   0.33632 
H          H       0.53194   0.31624   0.33632 
H          H       0.71806   0.56624   0.58632 
H          H       0.78194   0.93376   0.58632 
H          H       0.46806   0.18376   0.83632 
H          H       0.53194   0.81624   0.83632 
H          H       0.71806   0.06624   0.08632 
H          H       0.78194   0.43376   0.08632 
H          H       0.97411   0.61721   0.52021 
H          H       0.02589   0.38279   0.52021 
H          H       0.22411   0.63279   0.77021 
H          H       0.27589   0.86721   0.77021 
H          H       0.97411   0.11721   0.02021 
H          H       0.02589   0.88279   0.02021 
H          H       0.22411   0.13279   0.27021 
H          H       0.27589   0.36721   0.27021 
H          H       0.47411   0.61721   0.02021 
H          H       0.52589   0.38279   0.02021 
H          H       0.72411   0.63279   0.27021 
H          H       0.77589   0.86721   0.27021 
H          H       0.47411   0.11721   0.52021 
H          H       0.52589   0.88279   0.52021 
H          H       0.72411   0.13279   0.77021 
H          H       0.77589   0.36721   0.77021 
H          H       0.91117   0.69380   0.01132 
H          H       0.08883   0.30620   0.01132 
H          H       0.16117   0.55620   0.26132 
H          H       0.33883   0.94380   0.26132 
H          H       0.91117   0.19380   0.51132 
H          H       0.08883   0.80620   0.51132 
H          H       0.16117   0.05620   0.76132 
H          H       0.33883   0.44380   0.76132 
H          H       0.41117   0.69380   0.51132 
H          H       0.58883   0.30620   0.51132 
H          H       0.66117   0.55620   0.76132 
H          H       0.83883   0.94380   0.76132 
H          H       0.41117   0.19380   0.01132 
H          H       0.58883   0.80620   0.01132 
H          H       0.66117   0.05620   0.26132 
H          H       0.83883   0.44380   0.26132 
H          H       0.96230   0.58263   0.40335 
H          H       0.03770   0.41737   0.40335 
H          H       0.21230   0.66737   0.65335 
H          H       0.28770   0.83263   0.65335 
H          H       0.96230   0.08263   0.90335 
H          H       0.03770   0.91737   0.90335 
H          H       0.21230   0.16737   0.15335 
H          H       0.28770   0.33263   0.15335 
H          H       0.46230   0.58263   0.90335 
H          H       0.53770   0.41737   0.90335 
H          H       0.71230   0.66737   0.15335 
H          H       0.78770   0.83263   0.15335 
H          H       0.46230   0.08263   0.40335 
H          H       0.53770   0.91737   0.40335 
H          H       0.71230   0.16737   0.65335 
H          H       0.78770   0.33263   0.65335 
H          H       0.87578   0.70268   0.22828 
H          H       0.12422   0.29732   0.22828 
H          H       0.12578   0.54732   0.47828 
H          H       0.37422   0.95268   0.47828 
H          H       0.87578   0.20268   0.72828 
H          H       0.12422   0.79732   0.72828 
H          H       0.12578   0.04732   0.97828 
H          H       0.37422   0.45268   0.97828 
H          H       0.37578   0.70268   0.72828 
H          H       0.62422   0.29732   0.72828 
H          H       0.62578   0.54732   0.97828 
H          H       0.87422   0.95268   0.97828 
H          H       0.37578   0.20268   0.22828 
H          H       0.62422   0.79732   0.22828 
H          H       0.62578   0.04732   0.47828 
H          H       0.87422   0.45268   0.47828 
H          H       0.87752   0.52655   0.57304 
H          H       0.12248   0.47345   0.57304 
H          H       0.12752   0.72345   0.82304 
H          H       0.37248   0.77655   0.82304 
H          H       0.87752   0.02655   0.07304 
H          H       0.12248   0.97345   0.07304 
H          H       0.12752   0.22345   0.32304 
H          H       0.37248   0.27655   0.32304 
H          H       0.37752   0.52655   0.07304 
H          H       0.62248   0.47345   0.07304 
H          H       0.62752   0.72345   0.32304 
H          H       0.87248   0.77655   0.32304 
H          H       0.37752   0.02655   0.57304 
H          H       0.62248   0.97345   0.57304 
H          H       0.62752   0.22345   0.82304 
H          H       0.87248   0.27655   0.82304 
H          H       0.85654   0.55216   0.78655 
H          H       0.14346   0.44784   0.78655 
H          H       0.10654   0.69784   0.03655 
H          H       0.39346   0.80216   0.03655 
H          H       0.85654   0.05216   0.28655 
H          H       0.14346   0.94784   0.28655 
H          H       0.10654   0.19784   0.53655 
H          H       0.39346   0.30216   0.53655 
H          H       0.35654   0.55216   0.28655 
H          H       0.64346   0.44784   0.28655 
H          H       0.60654   0.69784   0.53655 
H          H       0.89346   0.80216   0.53655 
H          H       0.35654   0.05216   0.78655 
H          H       0.64346   0.94784   0.78655 
H          H       0.60654   0.19784   0.03655 
H          H       0.89346   0.30216   0.03655 
H          H       0.79098   0.65267   0.46505 
H          H       0.20902   0.34733   0.46505 
H          H       0.04098   0.59733   0.71505 
H          H       0.45902   0.90267   0.71505 
H          H       0.79098   0.15267   0.96505 
H          H       0.20902   0.84733   0.96505 
H          H       0.04098   0.09733   0.21505 
H          H       0.45902   0.40267   0.21505 
H          H       0.29098   0.65267   0.96505 
H          H       0.70902   0.34733   0.96505 
H          H       0.54098   0.59733   0.21505 
H          H       0.95902   0.90267   0.21505 
H          H       0.29098   0.15267   0.46505 
H          H       0.70902   0.84733   0.46505 
H          H       0.54098   0.09733   0.71505 
H          H       0.95902   0.40267   0.71505 
H          H       0.81166   0.62102   0.28099 
H          H       0.18834   0.37898   0.28099 
H          H       0.06166   0.62898   0.53099 
H          H       0.43834   0.87102   0.53099 
H          H       0.81166   0.12102   0.78099 
H          H       0.18834   0.87898   0.78099 
H          H       0.06166   0.12898   0.03099 
H          H       0.43834   0.37102   0.03099 
H          H       0.31166   0.62102   0.78099 
H          H       0.68834   0.37898   0.78099 
H          H       0.56166   0.62898   0.03099 
H          H       0.93834   0.87102   0.03099 
H          H       0.31166   0.12102   0.28099 
H          H       0.68834   0.87898   0.28099 
H          H       0.56166   0.12898   0.53099 
H          H       0.93834   0.37102   0.53099 
H          H       0.94079   0.57174   0.19439 
H          H       0.05921   0.42826   0.19439 
H          H       0.19079   0.67826   0.44439 
H          H       0.30921   0.82174   0.44439 
H          H       0.94079   0.07174   0.69439 
H          H       0.05921   0.92826   0.69439 
H          H       0.19079   0.17826   0.94439 
H          H       0.30921   0.32174   0.94439 
H          H       0.44079   0.57174   0.69439 
H          H       0.55921   0.42826   0.69439 
H          H       0.69079   0.67826   0.94439 
H          H       0.80921   0.82174   0.94439 
H          H       0.44079   0.07174   0.19439 
H          H       0.55921   0.92826   0.19439 
H          H       0.69079   0.17826   0.44439 
H          H       0.80921   0.32174   0.44439 
H          H       0.92718   0.50757   0.45705 
H          H       0.07282   0.49243   0.45705 
H          H       0.17718   0.74243   0.70705 
H          H       0.32282   0.75757   0.70705 
H          H       0.92718   0.00757   0.95705 
H          H       0.07282   0.99243   0.95705 
H          H       0.17718   0.24243   0.20705 
H          H       0.32282   0.25757   0.20705 
H          H       0.42718   0.50757   0.95705 
H          H       0.57282   0.49243   0.95705 
H          H       0.67718   0.74243   0.20705 
H          H       0.82282   0.75757   0.20705 
H          H       0.42718   0.00757   0.45705 
H          H       0.57282   0.99243   0.45705 
H          H       0.67718   0.24243   0.70705 
H          H       0.82282   0.25757   0.70705 
H          H       0.95894   0.48403   0.24583 
H          H       0.04106   0.51597   0.24583 
H          H       0.20894   0.76597   0.49583 
H          H       0.29106   0.73403   0.49583 
H          H       0.95894   0.98403   0.74583 
H          H       0.04106   0.01597   0.74583 
H          H       0.20894   0.26597   0.99583 
H          H       0.29106   0.23403   0.99583 
H          H       0.45894   0.48403   0.74583 
H          H       0.54106   0.51597   0.74583 
H          H       0.70894   0.76597   0.99583 
H          H       0.79106   0.73403   0.99583 
H          H       0.45894   0.98403   0.24583 
H          H       0.54106   0.01597   0.24583 
H          H       0.70894   0.26597   0.49583 
H          H       0.79106   0.23403   0.49583 
H          H       0.97868   0.54867   0.99576 
H          H       0.02132   0.45133   0.99576 
H          H       0.22868   0.70133   0.24576 
H          H       0.27132   0.79867   0.24576 
H          H       0.97868   0.04867   0.49576 
H          H       0.02132   0.95133   0.49576 
H          H       0.22868   0.20133   0.74576 
H          H       0.27132   0.29867   0.74576 
H          H       0.47868   0.54867   0.49576 
H          H       0.52132   0.45133   0.49576 
H          H       0.72868   0.70133   0.74576 
H          H       0.77132   0.79867   0.74576 
H          H       0.47868   0.04867   0.99576 
H          H       0.52132   0.95133   0.99576 
H          H       0.72868   0.20133   0.24576 
H          H       0.77132   0.29867   0.24576 
H          H       0.87633   0.70425   0.57555 
H          H       0.12367   0.29575   0.57555 
H          H       0.12633   0.54575   0.82555 
H          H       0.37367   0.95425   0.82555 
H          H       0.87633   0.20425   0.07555 
H          H       0.12367   0.79575   0.07555 
H          H       0.12633   0.04575   0.32555 
H          H       0.37367   0.45425   0.32555 
H          H       0.37633   0.70425   0.07555 
H          H       0.62367   0.29575   0.07555 
H          H       0.62633   0.54575   0.32555 
H          H       0.87367   0.95425   0.32555 
H          H       0.37633   0.20425   0.57555 
H          H       0.62367   0.79575   0.57555 
H          H       0.62633   0.04575   0.82555 
H          H       0.87367   0.45425   0.82555 
H          H       0.74820   0.69843   0.33794 
H          H       0.25180   0.30157   0.33794 
H          H       0.99820   0.55157   0.58794 
H          H       0.50180   0.94843   0.58794 
H          H       0.74820   0.19843   0.83794 
H          H       0.25180   0.80157   0.83794 
H          H       0.99820   0.05157   0.08794 
H          H       0.50180   0.44843   0.08794 
H          H       0.24820   0.69843   0.83794 
H          H       0.75180   0.30157   0.83794 
H          H       0.49820   0.55157   0.08794 
H          H       0.00180   0.94843   0.08794 
H          H       0.24820   0.19843   0.33794 
H          H       0.75180   0.80157   0.33794 
H          H       0.49820   0.05157   0.58794 
H          H       0.00180   0.44843   0.58794 
H          H       0.71403   0.72848   0.50980 
H          H       0.28597   0.27152   0.50980 
H          H       0.96403   0.52152   0.75980 
H          H       0.53597   0.97848   0.75980 
H          H       0.71403   0.22848   0.00980 
H          H       0.28597   0.77152   0.00980 
H          H       0.96403   0.02152   0.25980 
H          H       0.53597   0.47848   0.25980 
H          H       0.21403   0.72848   0.00980 
H          H       0.78597   0.27152   0.00980 
H          H       0.46403   0.52152   0.25980 
H          H       0.03597   0.97848   0.25980 
H          H       0.21403   0.22848   0.50980 
H          H       0.78597   0.77152   0.50980 
H          H       0.46403   0.02152   0.75980 
H          H       0.03597   0.47848   0.75980 
H          H       0.84033   0.73328   0.74905 
H          H       0.15967   0.26672   0.74905 
H          H       0.09033   0.51672   0.99905 
H          H       0.40967   0.98328   0.99905 
H          H       0.84033   0.23328   0.24905 
H          H       0.15967   0.76672   0.24905 
H          H       0.09033   0.01672   0.49905 
H          H       0.40967   0.48328   0.49905 
H          H       0.34033   0.73328   0.24905 
H          H       0.65967   0.26672   0.24905 
H          H       0.59033   0.51672   0.49905 
H          H       0.90967   0.98328   0.49905 
H          H       0.34033   0.23328   0.74905 
H          H       0.65967   0.76672   0.74905 
H          H       0.59033   0.01672   0.99905 
H          H       0.90967   0.48328   0.99905 
C          C       0.50000   0.50000   0.49524 
C          C       0.75000   0.75000   0.74524 
C          C       0.50000   0.00000   0.99524 
C          C       0.75000   0.25000   0.24524 
C          C       0.00000   0.50000   0.99524 
C          C       0.25000   0.75000   0.24524 
C          C       0.00000   0.00000   0.49524 
C          C       0.25000   0.25000   0.74524 
