data_crystal
 
_cell_length_a    29.88040
_cell_length_b    59.21560
_cell_length_c    9.45310
_cell_angle_alpha 90.00000
_cell_angle_beta  90.00000
_cell_angle_gamma 90.00000
 
_symmetry_space_group_name_Hall 'P 1'
_symmetry_space_group_name_H-M  'P 1'
 
loop_
_symmetry_equiv_pos_as_xyz
 'x,y,z' 
 
loop_
_atom_site_label
_atom_site_type_symbol
_atom_site_fract_x
_atom_site_fract_y
_atom_site_fract_z
_atom_site_charge
C          C       0.95647   0.65223   0.73956   0.0000000000
C          C       0.04353   0.34777   0.73956   0.0000000000
C          C       0.20647   0.59777   0.98956   0.0000000000
C          C       0.29353   0.90223   0.98956   0.0000000000
C          C       0.95647   0.15223   0.23956   0.0000000000
C          C       0.04353   0.84777   0.23956   0.0000000000
C          C       0.20647   0.09777   0.48956   0.0000000000
C          C       0.29353   0.40223   0.48956   0.0000000000
C          C       0.45647   0.65223   0.23956   0.0000000000
C          C       0.54353   0.34777   0.23956   0.0000000000
C          C       0.70647   0.59777   0.48956   0.0000000000
C          C       0.79353   0.90223   0.48956   0.0000000000
C          C       0.45647   0.15223   0.73956   0.0000000000
C          C       0.54353   0.84777   0.73956   0.0000000000
C          C       0.70647   0.09777   0.98956   0.0000000000
C          C       0.79353   0.40223   0.98956   0.0000000000
C          C       0.92810   0.67201   0.79437   0.0000000000
C          C       0.07190   0.32799   0.79437   0.0000000000
C          C       0.17810   0.57799   0.04437   0.0000000000
C          C       0.32190   0.92201   0.04437   0.0000000000
C          C       0.92810   0.17201   0.29437   0.0000000000
C          C       0.07190   0.82799   0.29437   0.0000000000
C          C       0.17810   0.07799   0.54437   0.0000000000
C          C       0.32190   0.42201   0.54437   0.0000000000
C          C       0.42810   0.67201   0.29437   0.0000000000
C          C       0.57190   0.32799   0.29437   0.0000000000
C          C       0.67810   0.57799   0.54437   0.0000000000
C          C       0.82190   0.92201   0.54437   0.0000000000
C          C       0.42810   0.17201   0.79437   0.0000000000
C          C       0.57190   0.82799   0.79437   0.0000000000
C          C       0.67810   0.07799   0.04437   0.0000000000
C          C       0.82190   0.42201   0.04437   0.0000000000
C          C       0.94128   0.61692   0.63611   0.0000000000
C          C       0.05872   0.38308   0.63611   0.0000000000
C          C       0.19128   0.63308   0.88611   0.0000000000
C          C       0.30872   0.86692   0.88611   0.0000000000
C          C       0.94128   0.11692   0.13611   0.0000000000
C          C       0.05872   0.88308   0.13611   0.0000000000
C          C       0.19128   0.13308   0.38611   0.0000000000
C          C       0.30872   0.36692   0.38611   0.0000000000
C          C       0.44128   0.61692   0.13611   0.0000000000
C          C       0.55872   0.38308   0.13611   0.0000000000
C          C       0.69128   0.63308   0.38611   0.0000000000
C          C       0.80872   0.86692   0.38611   0.0000000000
C          C       0.44128   0.11692   0.63611   0.0000000000
C          C       0.55872   0.88308   0.63611   0.0000000000
C          C       0.69128   0.13308   0.88611   0.0000000000
C          C       0.80872   0.36692   0.88611   0.0000000000
N          N       0.93053   0.63320   0.72841   0.0000000000
N          N       0.06947   0.36680   0.72841   0.0000000000
N          N       0.18053   0.61680   0.97841   0.0000000000
N          N       0.31947   0.88320   0.97841   0.0000000000
N          N       0.93053   0.13320   0.22841   0.0000000000
N          N       0.06947   0.86680   0.22841   0.0000000000
N          N       0.18053   0.11680   0.47841   0.0000000000
N          N       0.31947   0.38320   0.47841   0.0000000000
N          N       0.43053   0.63320   0.22841   0.0000000000
N          N       0.56947   0.36680   0.22841   0.0000000000
N          N       0.68053   0.61680   0.47841   0.0000000000
N          N       0.81947   0.88320   0.47841   0.0000000000
N          N       0.43053   0.13320   0.72841   0.0000000000
N          N       0.56947   0.86680   0.72841   0.0000000000
N          N       0.68053   0.11680   0.97841   0.0000000000
N          N       0.81947   0.38320   0.97841   0.0000000000
C          C       0.88326   0.67793   0.99865   0.0000000000
C          C       0.11674   0.32207   0.99865   0.0000000000
C          C       0.13326   0.57207   0.24865   0.0000000000
C          C       0.36674   0.92793   0.24865   0.0000000000
C          C       0.88326   0.17793   0.49865   0.0000000000
C          C       0.11674   0.82207   0.49865   0.0000000000
C          C       0.13326   0.07207   0.74865   0.0000000000
C          C       0.36674   0.42793   0.74865   0.0000000000
C          C       0.38326   0.67793   0.49865   0.0000000000
C          C       0.61674   0.32207   0.49865   0.0000000000
C          C       0.63326   0.57207   0.74865   0.0000000000
C          C       0.86674   0.92793   0.74865   0.0000000000
C          C       0.38326   0.17793   0.99865   0.0000000000
C          C       0.61674   0.82207   0.99865   0.0000000000
C          C       0.63326   0.07207   0.24865   0.0000000000
C          C       0.86674   0.42793   0.24865   0.0000000000
N          N       0.89724   0.66456   0.89251   0.0000000000
N          N       0.10276   0.33544   0.89251   0.0000000000
N          N       0.14724   0.58544   0.14251   0.0000000000
N          N       0.35276   0.91456   0.14251   0.0000000000
N          N       0.89724   0.16456   0.39251   0.0000000000
N          N       0.10276   0.83544   0.39251   0.0000000000
N          N       0.14724   0.08544   0.64251   0.0000000000
N          N       0.35276   0.41456   0.64251   0.0000000000
N          N       0.39724   0.66456   0.39251   0.0000000000
N          N       0.60276   0.33544   0.39251   0.0000000000
N          N       0.64724   0.58544   0.64251   0.0000000000
N          N       0.85276   0.91456   0.64251   0.0000000000
N          N       0.39724   0.16456   0.89251   0.0000000000
N          N       0.60276   0.83544   0.89251   0.0000000000
N          N       0.64724   0.08544   0.14251   0.0000000000
N          N       0.85276   0.41456   0.14251   0.0000000000
C          C       0.91589   0.59615   0.61837   0.0000000000
C          C       0.08411   0.40385   0.61837   0.0000000000
C          C       0.16589   0.65385   0.86837   0.0000000000
C          C       0.33411   0.84615   0.86837   0.0000000000
C          C       0.91589   0.09615   0.11837   0.0000000000
C          C       0.08411   0.90385   0.11837   0.0000000000
C          C       0.16589   0.15385   0.36837   0.0000000000
C          C       0.33411   0.34615   0.36837   0.0000000000
C          C       0.41589   0.59615   0.11837   0.0000000000
C          C       0.58411   0.40385   0.11837   0.0000000000
C          C       0.66589   0.65385   0.36837   0.0000000000
C          C       0.83411   0.84615   0.36837   0.0000000000
C          C       0.41589   0.09615   0.61837   0.0000000000
C          C       0.58411   0.90385   0.61837   0.0000000000
C          C       0.66589   0.15385   0.86837   0.0000000000
C          C       0.83411   0.34615   0.86837   0.0000000000
C          C       0.93098   0.58190   0.50978   0.0000000000
C          C       0.06902   0.41810   0.50978   0.0000000000
C          C       0.18098   0.66810   0.75978   0.0000000000
C          C       0.31902   0.83190   0.75978   0.0000000000
C          C       0.93098   0.08190   0.00978   0.0000000000
C          C       0.06902   0.91810   0.00978   0.0000000000
C          C       0.18098   0.16810   0.25978   0.0000000000
C          C       0.31902   0.33190   0.25978   0.0000000000
C          C       0.43098   0.58190   0.00978   0.0000000000
C          C       0.56902   0.41810   0.00978   0.0000000000
C          C       0.68098   0.66810   0.25978   0.0000000000
C          C       0.81902   0.83190   0.25978   0.0000000000
C          C       0.43098   0.08190   0.50978   0.0000000000
C          C       0.56902   0.91810   0.50978   0.0000000000
C          C       0.68098   0.16810   0.75978   0.0000000000
C          C       0.81902   0.33190   0.75978   0.0000000000
C          C       0.85114   0.67105   0.10783   0.0000000000
C          C       0.14886   0.32895   0.10783   0.0000000000
C          C       0.10114   0.57895   0.35783   0.0000000000
C          C       0.39886   0.92105   0.35783   0.0000000000
C          C       0.85114   0.17105   0.60783   0.0000000000
C          C       0.14886   0.82895   0.60783   0.0000000000
C          C       0.10114   0.07895   0.85783   0.0000000000
C          C       0.39886   0.42105   0.85783   0.0000000000
C          C       0.35114   0.67105   0.60783   0.0000000000
C          C       0.64886   0.32895   0.60783   0.0000000000
C          C       0.60114   0.57895   0.85783   0.0000000000
C          C       0.89886   0.92105   0.85783   0.0000000000
C          C       0.35114   0.17105   0.10783   0.0000000000
C          C       0.64886   0.82895   0.10783   0.0000000000
C          C       0.60114   0.07895   0.35783   0.0000000000
C          C       0.89886   0.42105   0.35783   0.0000000000
C          C       0.84356   0.68652   0.21888   0.0000000000
C          C       0.15644   0.31348   0.21888   0.0000000000
C          C       0.09356   0.56348   0.46888   0.0000000000
C          C       0.40644   0.93652   0.46888   0.0000000000
C          C       0.84356   0.18652   0.71888   0.0000000000
C          C       0.15644   0.81348   0.71888   0.0000000000
C          C       0.09356   0.06348   0.96888   0.0000000000
C          C       0.40644   0.43652   0.96888   0.0000000000
C          C       0.34356   0.68652   0.71888   0.0000000000
C          C       0.65644   0.31348   0.71888   0.0000000000
C          C       0.59356   0.56348   0.96888   0.0000000000
C          C       0.90644   0.93652   0.96888   0.0000000000
C          C       0.34356   0.18652   0.21888   0.0000000000
C          C       0.65644   0.81348   0.21888   0.0000000000
C          C       0.59356   0.06348   0.46888   0.0000000000
C          C       0.90644   0.43652   0.46888   0.0000000000
C          C       0.91019   0.56132   0.48001   0.0000000000
C          C       0.08981   0.43868   0.48001   0.0000000000
C          C       0.16019   0.68868   0.73001   0.0000000000
C          C       0.33981   0.81132   0.73001   0.0000000000
C          C       0.91019   0.06132   0.98001   0.0000000000
C          C       0.08981   0.93868   0.98001   0.0000000000
C          C       0.16019   0.18868   0.23001   0.0000000000
C          C       0.33981   0.31132   0.23001   0.0000000000
C          C       0.41019   0.56132   0.98001   0.0000000000
C          C       0.58981   0.43868   0.98001   0.0000000000
C          C       0.66019   0.68868   0.23001   0.0000000000
C          C       0.83981   0.81132   0.23001   0.0000000000
C          C       0.41019   0.06132   0.48001   0.0000000000
C          C       0.58981   0.93868   0.48001   0.0000000000
C          C       0.66019   0.18868   0.73001   0.0000000000
C          C       0.83981   0.31132   0.73001   0.0000000000
C          C       0.87315   0.55508   0.56219   0.0000000000
C          C       0.12685   0.44492   0.56219   0.0000000000
C          C       0.12315   0.69492   0.81219   0.0000000000
C          C       0.37685   0.80508   0.81219   0.0000000000
C          C       0.87315   0.05508   0.06219   0.0000000000
C          C       0.12685   0.94492   0.06219   0.0000000000
C          C       0.12315   0.19492   0.31219   0.0000000000
C          C       0.37685   0.30508   0.31219   0.0000000000
C          C       0.37315   0.55508   0.06219   0.0000000000
C          C       0.62685   0.44492   0.06219   0.0000000000
C          C       0.62315   0.69492   0.31219   0.0000000000
C          C       0.87685   0.80508   0.31219   0.0000000000
C          C       0.37315   0.05508   0.56219   0.0000000000
C          C       0.62685   0.94492   0.56219   0.0000000000
C          C       0.62315   0.19492   0.81219   0.0000000000
C          C       0.87685   0.30508   0.81219   0.0000000000
C          C       0.85815   0.56899   0.67274   0.0000000000
C          C       0.14185   0.43101   0.67274   0.0000000000
C          C       0.10815   0.68101   0.92274   0.0000000000
C          C       0.39185   0.81899   0.92274   0.0000000000
C          C       0.85815   0.06899   0.17274   0.0000000000
C          C       0.14185   0.93101   0.17274   0.0000000000
C          C       0.10815   0.18101   0.42274   0.0000000000
C          C       0.39185   0.31899   0.42274   0.0000000000
C          C       0.35815   0.56899   0.17274   0.0000000000
C          C       0.64185   0.43101   0.17274   0.0000000000
C          C       0.60815   0.68101   0.42274   0.0000000000
C          C       0.89185   0.81899   0.42274   0.0000000000
C          C       0.35815   0.06899   0.67274   0.0000000000
C          C       0.64185   0.93101   0.67274   0.0000000000
C          C       0.60815   0.18101   0.92274   0.0000000000
C          C       0.89185   0.31899   0.92274   0.0000000000
C          C       0.87953   0.58953   0.70265   0.0000000000
C          C       0.12047   0.41047   0.70265   0.0000000000
C          C       0.12953   0.66047   0.95265   0.0000000000
C          C       0.37047   0.83953   0.95265   0.0000000000
C          C       0.87953   0.08953   0.20265   0.0000000000
C          C       0.12047   0.91047   0.20265   0.0000000000
C          C       0.12953   0.16047   0.45265   0.0000000000
C          C       0.37047   0.33953   0.45265   0.0000000000
C          C       0.37953   0.58953   0.20265   0.0000000000
C          C       0.62047   0.41047   0.20265   0.0000000000
C          C       0.62953   0.66047   0.45265   0.0000000000
C          C       0.87047   0.83953   0.45265   0.0000000000
C          C       0.37953   0.08953   0.70265   0.0000000000
C          C       0.62047   0.91047   0.70265   0.0000000000
C          C       0.62953   0.16047   0.95265   0.0000000000
C          C       0.87047   0.33953   0.95265   0.0000000000
C          C       0.81331   0.68189   0.32957   0.0000000000
C          C       0.18669   0.31811   0.32957   0.0000000000
C          C       0.06331   0.56811   0.57957   0.0000000000
C          C       0.43669   0.93189   0.57957   0.0000000000
C          C       0.81331   0.18189   0.82957   0.0000000000
C          C       0.18669   0.81811   0.82957   0.0000000000
C          C       0.06331   0.06811   0.07957   0.0000000000
C          C       0.43669   0.43189   0.07957   0.0000000000
C          C       0.31331   0.68189   0.82957   0.0000000000
C          C       0.68669   0.31811   0.82957   0.0000000000
C          C       0.56331   0.56811   0.07957   0.0000000000
C          C       0.93669   0.93189   0.07957   0.0000000000
C          C       0.31331   0.18189   0.32957   0.0000000000
C          C       0.68669   0.81811   0.32957   0.0000000000
C          C       0.56331   0.06811   0.57957   0.0000000000
C          C       0.93669   0.43189   0.57957   0.0000000000
C          C       0.79054   0.66136   0.32652   0.0000000000
C          C       0.20946   0.33864   0.32652   0.0000000000
C          C       0.04054   0.58864   0.57652   0.0000000000
C          C       0.45946   0.91136   0.57652   0.0000000000
C          C       0.79054   0.16136   0.82652   0.0000000000
C          C       0.20946   0.83864   0.82652   0.0000000000
C          C       0.04054   0.08864   0.07652   0.0000000000
C          C       0.45946   0.41136   0.07652   0.0000000000
C          C       0.29054   0.66136   0.82652   0.0000000000
C          C       0.70946   0.33864   0.82652   0.0000000000
C          C       0.54054   0.58864   0.07652   0.0000000000
C          C       0.95946   0.91136   0.07652   0.0000000000
C          C       0.29054   0.16136   0.32652   0.0000000000
C          C       0.70946   0.83864   0.32652   0.0000000000
C          C       0.54054   0.08864   0.57652   0.0000000000
C          C       0.95946   0.41136   0.57652   0.0000000000
C          C       0.79713   0.64609   0.21610   0.0000000000
C          C       0.20287   0.35391   0.21610   0.0000000000
C          C       0.04713   0.60391   0.46610   0.0000000000
C          C       0.45287   0.89609   0.46610   0.0000000000
C          C       0.79713   0.14609   0.71610   0.0000000000
C          C       0.20287   0.85391   0.71610   0.0000000000
C          C       0.04713   0.10391   0.96610   0.0000000000
C          C       0.45287   0.39609   0.96610   0.0000000000
C          C       0.29713   0.64609   0.71610   0.0000000000
C          C       0.70287   0.35391   0.71610   0.0000000000
C          C       0.54713   0.60391   0.96610   0.0000000000
C          C       0.95287   0.89609   0.96610   0.0000000000
C          C       0.29713   0.14609   0.21610   0.0000000000
C          C       0.70287   0.85391   0.21610   0.0000000000
C          C       0.54713   0.10391   0.46610   0.0000000000
C          C       0.95287   0.39609   0.46610   0.0000000000
C          C       0.82712   0.65056   0.10562   0.0000000000
C          C       0.17288   0.34944   0.10562   0.0000000000
C          C       0.07712   0.59944   0.35562   0.0000000000
C          C       0.42288   0.90056   0.35562   0.0000000000
C          C       0.82712   0.15056   0.60562   0.0000000000
C          C       0.17288   0.84944   0.60562   0.0000000000
C          C       0.07712   0.09944   0.85562   0.0000000000
C          C       0.42288   0.40056   0.85562   0.0000000000
C          C       0.32712   0.65056   0.60562   0.0000000000
C          C       0.67288   0.34944   0.60562   0.0000000000
C          C       0.57712   0.59944   0.85562   0.0000000000
C          C       0.92288   0.90056   0.85562   0.0000000000
C          C       0.32712   0.15056   0.10562   0.0000000000
C          C       0.67288   0.84944   0.10562   0.0000000000
C          C       0.57712   0.09944   0.35562   0.0000000000
C          C       0.92288   0.40056   0.35562   0.0000000000
O          O       0.82911   0.63459   0.99604   0.0000000000
O          O       0.17089   0.36541   0.99604   0.0000000000
O          O       0.07911   0.61541   0.24604   0.0000000000
O          O       0.42089   0.88459   0.24604   0.0000000000
O          O       0.82911   0.13459   0.49604   0.0000000000
O          O       0.17089   0.86541   0.49604   0.0000000000
O          O       0.07911   0.11541   0.74604   0.0000000000
O          O       0.42089   0.38459   0.74604   0.0000000000
O          O       0.32911   0.63459   0.49604   0.0000000000
O          O       0.67089   0.36541   0.49604   0.0000000000
O          O       0.57911   0.61541   0.74604   0.0000000000
O          O       0.92089   0.88459   0.74604   0.0000000000
O          O       0.32911   0.13459   0.99604   0.0000000000
O          O       0.67089   0.86541   0.99604   0.0000000000
O          O       0.57911   0.11541   0.24604   0.0000000000
O          O       0.92089   0.38459   0.24604   0.0000000000
C          C       0.97471   0.54792   0.33554   0.0000000000
C          C       0.02529   0.45208   0.33554   0.0000000000
C          C       0.22471   0.70208   0.58554   0.0000000000
C          C       0.27529   0.79792   0.58554   0.0000000000
C          C       0.97471   0.04792   0.83554   0.0000000000
C          C       0.02529   0.95208   0.83554   0.0000000000
C          C       0.22471   0.20208   0.08554   0.0000000000
C          C       0.27529   0.29792   0.08554   0.0000000000
C          C       0.47471   0.54792   0.83554   0.0000000000
C          C       0.52529   0.45208   0.83554   0.0000000000
C          C       0.72471   0.70208   0.08554   0.0000000000
C          C       0.77529   0.79792   0.08554   0.0000000000
C          C       0.47471   0.04792   0.33554   0.0000000000
C          C       0.52529   0.95208   0.33554   0.0000000000
C          C       0.72471   0.20208   0.58554   0.0000000000
C          C       0.77529   0.29792   0.58554   0.0000000000
C          C       0.92918   0.54621   0.36904   0.0000000000
C          C       0.07082   0.45379   0.36904   0.0000000000
C          C       0.17918   0.70379   0.61904   0.0000000000
C          C       0.32082   0.79621   0.61904   0.0000000000
C          C       0.92918   0.04621   0.86904   0.0000000000
C          C       0.07082   0.95379   0.86904   0.0000000000
C          C       0.17918   0.20379   0.11904   0.0000000000
C          C       0.32082   0.29621   0.11904   0.0000000000
C          C       0.42918   0.54621   0.86904   0.0000000000
C          C       0.57082   0.45379   0.86904   0.0000000000
C          C       0.67918   0.70379   0.11904   0.0000000000
C          C       0.82082   0.79621   0.11904   0.0000000000
C          C       0.42918   0.04621   0.36904   0.0000000000
C          C       0.57082   0.95379   0.36904   0.0000000000
C          C       0.67918   0.20379   0.61904   0.0000000000
C          C       0.82082   0.29621   0.61904   0.0000000000
C          C       0.90379   0.52985   0.29705   0.0000000000
C          C       0.09621   0.47015   0.29705   0.0000000000
C          C       0.15379   0.72015   0.54705   0.0000000000
C          C       0.34621   0.77985   0.54705   0.0000000000
C          C       0.90379   0.02985   0.79705   0.0000000000
C          C       0.09621   0.97015   0.79705   0.0000000000
C          C       0.15379   0.22015   0.04705   0.0000000000
C          C       0.34621   0.27985   0.04705   0.0000000000
C          C       0.40379   0.52985   0.79705   0.0000000000
C          C       0.59621   0.47015   0.79705   0.0000000000
C          C       0.65379   0.72015   0.04705   0.0000000000
C          C       0.84621   0.77985   0.04705   0.0000000000
C          C       0.40379   0.02985   0.29705   0.0000000000
C          C       0.59621   0.97015   0.29705   0.0000000000
C          C       0.65379   0.22015   0.54705   0.0000000000
C          C       0.84621   0.27985   0.54705   0.0000000000
C          C       0.92275   0.51587   0.19345   0.0000000000
C          C       0.07725   0.48413   0.19345   0.0000000000
C          C       0.17275   0.73413   0.44345   0.0000000000
C          C       0.32725   0.76587   0.44345   0.0000000000
C          C       0.92275   0.01587   0.69345   0.0000000000
C          C       0.07725   0.98413   0.69345   0.0000000000
C          C       0.17275   0.23413   0.94345   0.0000000000
C          C       0.32725   0.26587   0.94345   0.0000000000
C          C       0.42275   0.51587   0.69345   0.0000000000
C          C       0.57725   0.48413   0.69345   0.0000000000
C          C       0.67275   0.73413   0.94345   0.0000000000
C          C       0.82725   0.76587   0.94345   0.0000000000
C          C       0.42275   0.01587   0.19345   0.0000000000
C          C       0.57725   0.98413   0.19345   0.0000000000
C          C       0.67275   0.23413   0.44345   0.0000000000
C          C       0.82725   0.26587   0.44345   0.0000000000
C          C       0.96839   0.51799   0.16101   0.0000000000
C          C       0.03161   0.48201   0.16101   0.0000000000
C          C       0.21839   0.73201   0.41101   0.0000000000
C          C       0.28161   0.76799   0.41101   0.0000000000
C          C       0.96839   0.01799   0.66101   0.0000000000
C          C       0.03161   0.98201   0.66101   0.0000000000
C          C       0.21839   0.23201   0.91101   0.0000000000
C          C       0.28161   0.26799   0.91101   0.0000000000
C          C       0.46839   0.51799   0.66101   0.0000000000
C          C       0.53161   0.48201   0.66101   0.0000000000
C          C       0.71839   0.73201   0.91101   0.0000000000
C          C       0.78161   0.76799   0.91101   0.0000000000
C          C       0.46839   0.01799   0.16101   0.0000000000
C          C       0.53161   0.98201   0.16101   0.0000000000
C          C       0.71839   0.23201   0.41101   0.0000000000
C          C       0.78161   0.26799   0.41101   0.0000000000
C          C       0.99423   0.53388   0.23387   0.0000000000
C          C       0.00577   0.46612   0.23387   0.0000000000
C          C       0.24423   0.71612   0.48387   0.0000000000
C          C       0.25577   0.78388   0.48387   0.0000000000
C          C       0.99423   0.03388   0.73387   0.0000000000
C          C       0.00577   0.96612   0.73387   0.0000000000
C          C       0.24423   0.21612   0.98387   0.0000000000
C          C       0.25577   0.28388   0.98387   0.0000000000
C          C       0.49423   0.53388   0.73387   0.0000000000
C          C       0.50577   0.46612   0.73387   0.0000000000
C          C       0.74423   0.71612   0.98387   0.0000000000
C          C       0.75577   0.78388   0.98387   0.0000000000
C          C       0.49423   0.03388   0.23387   0.0000000000
C          C       0.50577   0.96612   0.23387   0.0000000000
C          C       0.74423   0.21612   0.48387   0.0000000000
C          C       0.75577   0.28388   0.48387   0.0000000000
C          C       0.81948   0.72062   0.44270   0.0000000000
C          C       0.18052   0.27938   0.44270   0.0000000000
C          C       0.06948   0.52938   0.69270   0.0000000000
C          C       0.43052   0.97062   0.69270   0.0000000000
C          C       0.81948   0.22062   0.94270   0.0000000000
C          C       0.18052   0.77938   0.94270   0.0000000000
C          C       0.06948   0.02938   0.19270   0.0000000000
C          C       0.43052   0.47062   0.19270   0.0000000000
C          C       0.31948   0.72062   0.94270   0.0000000000
C          C       0.68052   0.27938   0.94270   0.0000000000
C          C       0.56948   0.52938   0.19270   0.0000000000
C          C       0.93052   0.97062   0.19270   0.0000000000
C          C       0.31948   0.22062   0.44270   0.0000000000
C          C       0.68052   0.77938   0.44270   0.0000000000
C          C       0.56948   0.02938   0.69270   0.0000000000
C          C       0.93052   0.47062   0.69270   0.0000000000
C          C       0.80351   0.69836   0.44542   0.0000000000
C          C       0.19649   0.30164   0.44542   0.0000000000
C          C       0.05351   0.55164   0.69542   0.0000000000
C          C       0.44649   0.94836   0.69542   0.0000000000
C          C       0.80351   0.19836   0.94542   0.0000000000
C          C       0.19649   0.80164   0.94542   0.0000000000
C          C       0.05351   0.05164   0.19542   0.0000000000
C          C       0.44649   0.44836   0.19542   0.0000000000
C          C       0.30351   0.69836   0.94542   0.0000000000
C          C       0.69649   0.30164   0.94542   0.0000000000
C          C       0.55351   0.55164   0.19542   0.0000000000
C          C       0.94649   0.94836   0.19542   0.0000000000
C          C       0.30351   0.19836   0.44542   0.0000000000
C          C       0.69649   0.80164   0.44542   0.0000000000
C          C       0.55351   0.05164   0.69542   0.0000000000
C          C       0.94649   0.44836   0.69542   0.0000000000
C          C       0.77538   0.69200   0.55782   0.0000000000
C          C       0.22462   0.30800   0.55782   0.0000000000
C          C       0.02538   0.55800   0.80782   0.0000000000
C          C       0.47462   0.94200   0.80782   0.0000000000
C          C       0.77538   0.19200   0.05782   0.0000000000
C          C       0.22462   0.80800   0.05782   0.0000000000
C          C       0.02538   0.05800   0.30782   0.0000000000
C          C       0.47462   0.44200   0.30782   0.0000000000
C          C       0.27538   0.69200   0.05782   0.0000000000
C          C       0.72462   0.30800   0.05782   0.0000000000
C          C       0.52538   0.55800   0.30782   0.0000000000
C          C       0.97462   0.94200   0.30782   0.0000000000
C          C       0.27538   0.19200   0.55782   0.0000000000
C          C       0.72462   0.80800   0.55782   0.0000000000
C          C       0.52538   0.05800   0.80782   0.0000000000
C          C       0.97462   0.44200   0.80782   0.0000000000
C          C       0.76243   0.70714   0.66349   0.0000000000
C          C       0.23757   0.29286   0.66349   0.0000000000
C          C       0.01243   0.54286   0.91349   0.0000000000
C          C       0.48757   0.95714   0.91349   0.0000000000
C          C       0.76243   0.20714   0.16349   0.0000000000
C          C       0.23757   0.79286   0.16349   0.0000000000
C          C       0.01243   0.04286   0.41349   0.0000000000
C          C       0.48757   0.45714   0.41349   0.0000000000
C          C       0.26243   0.70714   0.16349   0.0000000000
C          C       0.73757   0.29286   0.16349   0.0000000000
C          C       0.51243   0.54286   0.41349   0.0000000000
C          C       0.98757   0.95714   0.41349   0.0000000000
C          C       0.26243   0.20714   0.66349   0.0000000000
C          C       0.73757   0.79286   0.66349   0.0000000000
C          C       0.51243   0.04286   0.91349   0.0000000000
C          C       0.98757   0.45714   0.91349   0.0000000000
C          C       0.77800   0.72949   0.65944   0.0000000000
C          C       0.22200   0.27051   0.65944   0.0000000000
C          C       0.02800   0.52051   0.90944   0.0000000000
C          C       0.47200   0.97949   0.90944   0.0000000000
C          C       0.77800   0.22949   0.15944   0.0000000000
C          C       0.22200   0.77051   0.15944   0.0000000000
C          C       0.02800   0.02051   0.40944   0.0000000000
C          C       0.47200   0.47949   0.40944   0.0000000000
C          C       0.27800   0.72949   0.15944   0.0000000000
C          C       0.72200   0.27051   0.15944   0.0000000000
C          C       0.52800   0.52051   0.40944   0.0000000000
C          C       0.97200   0.97949   0.40944   0.0000000000
C          C       0.27800   0.22949   0.65944   0.0000000000
C          C       0.72200   0.77051   0.65944   0.0000000000
C          C       0.52800   0.02051   0.90944   0.0000000000
C          C       0.97200   0.47949   0.90944   0.0000000000
C          C       0.80644   0.73599   0.54844   0.0000000000
C          C       0.19356   0.26401   0.54844   0.0000000000
C          C       0.05644   0.51401   0.79844   0.0000000000
C          C       0.44356   0.98599   0.79844   0.0000000000
C          C       0.80644   0.23599   0.04844   0.0000000000
C          C       0.19356   0.76401   0.04844   0.0000000000
C          C       0.05644   0.01401   0.29844   0.0000000000
C          C       0.44356   0.48599   0.29844   0.0000000000
C          C       0.30644   0.73599   0.04844   0.0000000000
C          C       0.69356   0.26401   0.04844   0.0000000000
C          C       0.55644   0.51401   0.29844   0.0000000000
C          C       0.94356   0.98599   0.29844   0.0000000000
C          C       0.30644   0.23599   0.54844   0.0000000000
C          C       0.69356   0.76401   0.54844   0.0000000000
C          C       0.55644   0.01401   0.79844   0.0000000000
C          C       0.94356   0.48599   0.79844   0.0000000000
O          O       0.86539   0.60178   0.82204   0.0000000000
O          O       0.13461   0.39822   0.82204   0.0000000000
O          O       0.11539   0.64822   0.07204   0.0000000000
O          O       0.38461   0.85178   0.07204   0.0000000000
O          O       0.86539   0.10178   0.32204   0.0000000000
O          O       0.13461   0.89822   0.32204   0.0000000000
O          O       0.11539   0.14822   0.57204   0.0000000000
O          O       0.38461   0.35178   0.57204   0.0000000000
O          O       0.36539   0.60178   0.32204   0.0000000000
O          O       0.63461   0.39822   0.32204   0.0000000000
O          O       0.61539   0.64822   0.57204   0.0000000000
O          O       0.88461   0.85178   0.57204   0.0000000000
O          O       0.36539   0.10178   0.82204   0.0000000000
O          O       0.63461   0.89822   0.82204   0.0000000000
O          O       0.61539   0.14822   0.07204   0.0000000000
O          O       0.88461   0.35178   0.07204   0.0000000000
Zn         Zn      0.62914   0.61702   0.61114   0.0000000000
Zn         Zn      0.37086   0.38298   0.61114   0.0000000000
Zn         Zn      0.87914   0.63298   0.86114   0.0000000000
Zn         Zn      0.62086   0.86702   0.86114   0.0000000000
Zn         Zn      0.62914   0.11702   0.11114   0.0000000000
Zn         Zn      0.37086   0.88298   0.11114   0.0000000000
Zn         Zn      0.87914   0.13298   0.36114   0.0000000000
Zn         Zn      0.62086   0.36702   0.36114   0.0000000000
Zn         Zn      0.12914   0.61702   0.11114   0.0000000000
Zn         Zn      0.87086   0.38298   0.11114   0.0000000000
Zn         Zn      0.37914   0.63298   0.36114   0.0000000000
Zn         Zn      0.12086   0.86702   0.36114   0.0000000000
Zn         Zn      0.12914   0.11702   0.61114   0.0000000000
Zn         Zn      0.87086   0.88298   0.61114   0.0000000000
Zn         Zn      0.37914   0.13298   0.86114   0.0000000000
Zn         Zn      0.12086   0.36702   0.86114   0.0000000000
H          H       0.98517   0.64891   0.81626   0.0000000000
H          H       0.01483   0.35109   0.81626   0.0000000000
H          H       0.23517   0.60109   0.06626   0.0000000000
H          H       0.26483   0.89891   0.06626   0.0000000000
H          H       0.98517   0.14891   0.31626   0.0000000000
H          H       0.01483   0.85109   0.31626   0.0000000000
H          H       0.23517   0.10109   0.56626   0.0000000000
H          H       0.26483   0.39891   0.56626   0.0000000000
H          H       0.48517   0.64891   0.31626   0.0000000000
H          H       0.51483   0.35109   0.31626   0.0000000000
H          H       0.73517   0.60109   0.56626   0.0000000000
H          H       0.76483   0.89891   0.56626   0.0000000000
H          H       0.48517   0.14891   0.81626   0.0000000000
H          H       0.51483   0.85109   0.81626   0.0000000000
H          H       0.73517   0.10109   0.06626   0.0000000000
H          H       0.76483   0.39891   0.06626   0.0000000000
H          H       0.97065   0.65665   0.63109   0.0000000000
H          H       0.02935   0.34335   0.63109   0.0000000000
H          H       0.22065   0.59335   0.88109   0.0000000000
H          H       0.27935   0.90665   0.88109   0.0000000000
H          H       0.97065   0.15665   0.13109   0.0000000000
H          H       0.02935   0.84335   0.13109   0.0000000000
H          H       0.22065   0.09335   0.38109   0.0000000000
H          H       0.27935   0.40665   0.38109   0.0000000000
H          H       0.47065   0.65665   0.13109   0.0000000000
H          H       0.52935   0.34335   0.13109   0.0000000000
H          H       0.72065   0.59335   0.38109   0.0000000000
H          H       0.77935   0.90665   0.38109   0.0000000000
H          H       0.47065   0.15665   0.63109   0.0000000000
H          H       0.52935   0.84335   0.63109   0.0000000000
H          H       0.72065   0.09335   0.88109   0.0000000000
H          H       0.77935   0.40665   0.88109   0.0000000000
H          H       0.90976   0.68018   0.70184   0.0000000000
H          H       0.09024   0.31982   0.70184   0.0000000000
H          H       0.15976   0.56982   0.95184   0.0000000000
H          H       0.34024   0.93018   0.95184   0.0000000000
H          H       0.90976   0.18018   0.20184   0.0000000000
H          H       0.09024   0.81982   0.20184   0.0000000000
H          H       0.15976   0.06982   0.45184   0.0000000000
H          H       0.34024   0.43018   0.45184   0.0000000000
H          H       0.40976   0.68018   0.20184   0.0000000000
H          H       0.59024   0.31982   0.20184   0.0000000000
H          H       0.65976   0.56982   0.45184   0.0000000000
H          H       0.84024   0.93018   0.45184   0.0000000000
H          H       0.40976   0.18018   0.70184   0.0000000000
H          H       0.59024   0.81982   0.70184   0.0000000000
H          H       0.65976   0.06982   0.95184   0.0000000000
H          H       0.84024   0.43018   0.95184   0.0000000000
H          H       0.95083   0.68505   0.84646   0.0000000000
H          H       0.04917   0.31495   0.84646   0.0000000000
H          H       0.20083   0.56495   0.09646   0.0000000000
H          H       0.29917   0.93505   0.09646   0.0000000000
H          H       0.95083   0.18505   0.34646   0.0000000000
H          H       0.04917   0.81495   0.34646   0.0000000000
H          H       0.20083   0.06495   0.59646   0.0000000000
H          H       0.29917   0.43505   0.59646   0.0000000000
H          H       0.45083   0.68505   0.34646   0.0000000000
H          H       0.54917   0.31495   0.34646   0.0000000000
H          H       0.70083   0.56495   0.59646   0.0000000000
H          H       0.79917   0.93505   0.59646   0.0000000000
H          H       0.45083   0.18505   0.84646   0.0000000000
H          H       0.54917   0.81495   0.84646   0.0000000000
H          H       0.70083   0.06495   0.09646   0.0000000000
H          H       0.79917   0.43505   0.09646   0.0000000000
H          H       0.97196   0.61890   0.56553   0.0000000000
H          H       0.02804   0.38110   0.56553   0.0000000000
H          H       0.22196   0.63110   0.81553   0.0000000000
H          H       0.27804   0.86890   0.81553   0.0000000000
H          H       0.97196   0.11890   0.06553   0.0000000000
H          H       0.02804   0.88110   0.06553   0.0000000000
H          H       0.22196   0.13110   0.31553   0.0000000000
H          H       0.27804   0.36890   0.31553   0.0000000000
H          H       0.47196   0.61890   0.06553   0.0000000000
H          H       0.52804   0.38110   0.06553   0.0000000000
H          H       0.72196   0.63110   0.31553   0.0000000000
H          H       0.77804   0.86890   0.31553   0.0000000000
H          H       0.47196   0.11890   0.56553   0.0000000000
H          H       0.52804   0.88110   0.56553   0.0000000000
H          H       0.72196   0.13110   0.81553   0.0000000000
H          H       0.77804   0.36890   0.81553   0.0000000000
H          H       0.89650   0.69592   0.00794   0.0000000000
H          H       0.10350   0.30408   0.00794   0.0000000000
H          H       0.14650   0.55408   0.25794   0.0000000000
H          H       0.35350   0.94592   0.25794   0.0000000000
H          H       0.89650   0.19592   0.50794   0.0000000000
H          H       0.10350   0.80408   0.50794   0.0000000000
H          H       0.14650   0.05408   0.75794   0.0000000000
H          H       0.35350   0.44592   0.75794   0.0000000000
H          H       0.39650   0.69592   0.50794   0.0000000000
H          H       0.60350   0.30408   0.50794   0.0000000000
H          H       0.64650   0.55408   0.75794   0.0000000000
H          H       0.85350   0.94592   0.75794   0.0000000000
H          H       0.39650   0.19592   0.00794   0.0000000000
H          H       0.60350   0.80408   0.00794   0.0000000000
H          H       0.64650   0.05408   0.25794   0.0000000000
H          H       0.85350   0.44592   0.25794   0.0000000000
H          H       0.96105   0.58701   0.44282   0.0000000000
H          H       0.03895   0.41299   0.44282   0.0000000000
H          H       0.21105   0.66299   0.69282   0.0000000000
H          H       0.28895   0.83701   0.69282   0.0000000000
H          H       0.96105   0.08701   0.94282   0.0000000000
H          H       0.03895   0.91299   0.94282   0.0000000000
H          H       0.21105   0.16299   0.19282   0.0000000000
H          H       0.28895   0.33701   0.19282   0.0000000000
H          H       0.46105   0.58701   0.94282   0.0000000000
H          H       0.53895   0.41299   0.94282   0.0000000000
H          H       0.71105   0.66299   0.19282   0.0000000000
H          H       0.78895   0.83701   0.19282   0.0000000000
H          H       0.46105   0.08701   0.44282   0.0000000000
H          H       0.53895   0.91299   0.44282   0.0000000000
H          H       0.71105   0.16299   0.69282   0.0000000000
H          H       0.78895   0.33701   0.69282   0.0000000000
H          H       0.86216   0.70333   0.22077   0.0000000000
H          H       0.13784   0.29667   0.22077   0.0000000000
H          H       0.11216   0.54667   0.47077   0.0000000000
H          H       0.38784   0.95333   0.47077   0.0000000000
H          H       0.86216   0.20333   0.72077   0.0000000000
H          H       0.13784   0.79667   0.72077   0.0000000000
H          H       0.11216   0.04667   0.97077   0.0000000000
H          H       0.38784   0.45333   0.97077   0.0000000000
H          H       0.36216   0.70333   0.72077   0.0000000000
H          H       0.63784   0.29667   0.72077   0.0000000000
H          H       0.61216   0.54667   0.97077   0.0000000000
H          H       0.88784   0.95333   0.97077   0.0000000000
H          H       0.36216   0.20333   0.22077   0.0000000000
H          H       0.63784   0.79667   0.22077   0.0000000000
H          H       0.61216   0.04667   0.47077   0.0000000000
H          H       0.88784   0.45333   0.47077   0.0000000000
H          H       0.85489   0.53857   0.53955   0.0000000000
H          H       0.14511   0.46143   0.53955   0.0000000000
H          H       0.10489   0.71143   0.78955   0.0000000000
H          H       0.39511   0.78857   0.78955   0.0000000000
H          H       0.85489   0.03857   0.03955   0.0000000000
H          H       0.14511   0.96143   0.03955   0.0000000000
H          H       0.10489   0.21143   0.28955   0.0000000000
H          H       0.39511   0.28857   0.28955   0.0000000000
H          H       0.35489   0.53857   0.03955   0.0000000000
H          H       0.64511   0.46143   0.03955   0.0000000000
H          H       0.60489   0.71143   0.28955   0.0000000000
H          H       0.89511   0.78857   0.28955   0.0000000000
H          H       0.35489   0.03857   0.53955   0.0000000000
H          H       0.64511   0.96143   0.53955   0.0000000000
H          H       0.60489   0.21143   0.78955   0.0000000000
H          H       0.89511   0.28857   0.78955   0.0000000000
H          H       0.82825   0.56363   0.73970   0.0000000000
H          H       0.17175   0.43637   0.73970   0.0000000000
H          H       0.07825   0.68637   0.98970   0.0000000000
H          H       0.42175   0.81363   0.98970   0.0000000000
H          H       0.82825   0.06363   0.23970   0.0000000000
H          H       0.17175   0.93637   0.23970   0.0000000000
H          H       0.07825   0.18637   0.48970   0.0000000000
H          H       0.42175   0.31363   0.48970   0.0000000000
H          H       0.32825   0.56363   0.23970   0.0000000000
H          H       0.67175   0.43637   0.23970   0.0000000000
H          H       0.57825   0.68637   0.48970   0.0000000000
H          H       0.92175   0.81363   0.48970   0.0000000000
H          H       0.32825   0.06363   0.73970   0.0000000000
H          H       0.67175   0.93637   0.73970   0.0000000000
H          H       0.57825   0.18637   0.98970   0.0000000000
H          H       0.92175   0.31363   0.98970   0.0000000000
H          H       0.76618   0.65687   0.41497   0.0000000000
H          H       0.23382   0.34313   0.41497   0.0000000000
H          H       0.01618   0.59313   0.66497   0.0000000000
H          H       0.48382   0.90687   0.66497   0.0000000000
H          H       0.76618   0.15687   0.91497   0.0000000000
H          H       0.23382   0.84313   0.91497   0.0000000000
H          H       0.01618   0.09313   0.16497   0.0000000000
H          H       0.48382   0.40687   0.16497   0.0000000000
H          H       0.26618   0.65687   0.91497   0.0000000000
H          H       0.73382   0.34313   0.91497   0.0000000000
H          H       0.51618   0.59313   0.16497   0.0000000000
H          H       0.98382   0.90687   0.16497   0.0000000000
H          H       0.26618   0.15687   0.41497   0.0000000000
H          H       0.73382   0.84313   0.41497   0.0000000000
H          H       0.51618   0.09313   0.66497   0.0000000000
H          H       0.98382   0.40687   0.66497   0.0000000000
H          H       0.77787   0.62947   0.21420   0.0000000000
H          H       0.22213   0.37053   0.21420   0.0000000000
H          H       0.02787   0.62053   0.46420   0.0000000000
H          H       0.47213   0.87947   0.46420   0.0000000000
H          H       0.77787   0.12947   0.71420   0.0000000000
H          H       0.22213   0.87053   0.71420   0.0000000000
H          H       0.02787   0.12053   0.96420   0.0000000000
H          H       0.47213   0.37947   0.96420   0.0000000000
H          H       0.27787   0.62947   0.71420   0.0000000000
H          H       0.72213   0.37053   0.71420   0.0000000000
H          H       0.52787   0.62053   0.96420   0.0000000000
H          H       0.97213   0.87947   0.96420   0.0000000000
H          H       0.27787   0.12947   0.21420   0.0000000000
H          H       0.72213   0.87053   0.21420   0.0000000000
H          H       0.52787   0.12053   0.46420   0.0000000000
H          H       0.97213   0.37947   0.46420   0.0000000000
H          H       0.99656   0.56092   0.39158   0.0000000000
H          H       0.00344   0.43908   0.39158   0.0000000000
H          H       0.24656   0.68908   0.64158   0.0000000000
H          H       0.25344   0.81092   0.64158   0.0000000000
H          H       0.99656   0.06092   0.89158   0.0000000000
H          H       0.00344   0.93908   0.89158   0.0000000000
H          H       0.24656   0.18908   0.14158   0.0000000000
H          H       0.25344   0.31092   0.14158   0.0000000000
H          H       0.49656   0.56092   0.89158   0.0000000000
H          H       0.50344   0.43908   0.89158   0.0000000000
H          H       0.74656   0.68908   0.14158   0.0000000000
H          H       0.75344   0.81092   0.14158   0.0000000000
H          H       0.49656   0.06092   0.39158   0.0000000000
H          H       0.50344   0.93908   0.39158   0.0000000000
H          H       0.74656   0.18908   0.64158   0.0000000000
H          H       0.75344   0.31092   0.64158   0.0000000000
H          H       0.86674   0.52787   0.32304   0.0000000000
H          H       0.13326   0.47213   0.32304   0.0000000000
H          H       0.11674   0.72213   0.57304   0.0000000000
H          H       0.38326   0.77787   0.57304   0.0000000000
H          H       0.86674   0.02787   0.82304   0.0000000000
H          H       0.13326   0.97213   0.82304   0.0000000000
H          H       0.11674   0.22213   0.07304   0.0000000000
H          H       0.38326   0.27787   0.07304   0.0000000000
H          H       0.36674   0.52787   0.82304   0.0000000000
H          H       0.63326   0.47213   0.82304   0.0000000000
H          H       0.61674   0.72213   0.07304   0.0000000000
H          H       0.88326   0.77787   0.07304   0.0000000000
H          H       0.36674   0.02787   0.32304   0.0000000000
H          H       0.63326   0.97213   0.32304   0.0000000000
H          H       0.61674   0.22213   0.57304   0.0000000000
H          H       0.88326   0.27787   0.57304   0.0000000000
H          H       0.90138   0.50284   0.13586   0.0000000000
H          H       0.09862   0.49716   0.13586   0.0000000000
H          H       0.15138   0.74716   0.38586   0.0000000000
H          H       0.34862   0.75284   0.38586   0.0000000000
H          H       0.90138   0.00284   0.63586   0.0000000000
H          H       0.09862   0.99716   0.63586   0.0000000000
H          H       0.15138   0.24716   0.88586   0.0000000000
H          H       0.34862   0.25284   0.88586   0.0000000000
H          H       0.40138   0.50284   0.63586   0.0000000000
H          H       0.59862   0.49716   0.63586   0.0000000000
H          H       0.65138   0.74716   0.88586   0.0000000000
H          H       0.84862   0.75284   0.88586   0.0000000000
H          H       0.40138   0.00284   0.13586   0.0000000000
H          H       0.59862   0.99716   0.13586   0.0000000000
H          H       0.65138   0.24716   0.38586   0.0000000000
H          H       0.84862   0.25284   0.38586   0.0000000000
H          H       0.03148   0.53529   0.20935   0.0000000000
H          H       0.96852   0.46471   0.20935   0.0000000000
H          H       0.28148   0.71471   0.45935   0.0000000000
H          H       0.21852   0.78529   0.45935   0.0000000000
H          H       0.03148   0.03529   0.70935   0.0000000000
H          H       0.96852   0.96471   0.70935   0.0000000000
H          H       0.28148   0.21471   0.95935   0.0000000000
H          H       0.21852   0.28529   0.95935   0.0000000000
H          H       0.53148   0.53529   0.70935   0.0000000000
H          H       0.46852   0.46471   0.70935   0.0000000000
H          H       0.78148   0.71471   0.95935   0.0000000000
H          H       0.71852   0.78529   0.95935   0.0000000000
H          H       0.53148   0.03529   0.20935   0.0000000000
H          H       0.46852   0.96471   0.20935   0.0000000000
H          H       0.78148   0.21471   0.45935   0.0000000000
H          H       0.71852   0.28529   0.45935   0.0000000000
H          H       0.84305   0.72628   0.35475   0.0000000000
H          H       0.15695   0.27372   0.35475   0.0000000000
H          H       0.09305   0.52372   0.60475   0.0000000000
H          H       0.40695   0.97628   0.60475   0.0000000000
H          H       0.84305   0.22628   0.85475   0.0000000000
H          H       0.15695   0.77372   0.85475   0.0000000000
H          H       0.09305   0.02372   0.10475   0.0000000000
H          H       0.40695   0.47628   0.10475   0.0000000000
H          H       0.34305   0.72628   0.85475   0.0000000000
H          H       0.65695   0.27372   0.85475   0.0000000000
H          H       0.59305   0.52372   0.10475   0.0000000000
H          H       0.90695   0.97628   0.10475   0.0000000000
H          H       0.34305   0.22628   0.35475   0.0000000000
H          H       0.65695   0.77372   0.35475   0.0000000000
H          H       0.59305   0.02372   0.60475   0.0000000000
H          H       0.90695   0.47628   0.60475   0.0000000000
H          H       0.76235   0.67394   0.56495   0.0000000000
H          H       0.23765   0.32606   0.56495   0.0000000000
H          H       0.01235   0.57606   0.81495   0.0000000000
H          H       0.48765   0.92394   0.81495   0.0000000000
H          H       0.76235   0.17394   0.06495   0.0000000000
H          H       0.23765   0.82606   0.06495   0.0000000000
H          H       0.01235   0.07606   0.31495   0.0000000000
H          H       0.48765   0.42394   0.31495   0.0000000000
H          H       0.26235   0.67394   0.06495   0.0000000000
H          H       0.73765   0.32606   0.06495   0.0000000000
H          H       0.51235   0.57606   0.31495   0.0000000000
H          H       0.98765   0.92394   0.31495   0.0000000000
H          H       0.26235   0.17394   0.56495   0.0000000000
H          H       0.73765   0.82606   0.56495   0.0000000000
H          H       0.51235   0.07606   0.81495   0.0000000000
H          H       0.98765   0.42394   0.81495   0.0000000000
H          H       0.73944   0.70164   0.75229   0.0000000000
H          H       0.26056   0.29836   0.75229   0.0000000000
H          H       0.98944   0.54836   0.00229   0.0000000000
H          H       0.51056   0.95164   0.00229   0.0000000000
H          H       0.73944   0.20164   0.25229   0.0000000000
H          H       0.26056   0.79836   0.25229   0.0000000000
H          H       0.98944   0.04836   0.50229   0.0000000000
H          H       0.51056   0.45164   0.50229   0.0000000000
H          H       0.23944   0.70164   0.25229   0.0000000000
H          H       0.76056   0.29836   0.25229   0.0000000000
H          H       0.48944   0.54836   0.50229   0.0000000000
H          H       0.01056   0.95164   0.50229   0.0000000000
H          H       0.23944   0.20164   0.75229   0.0000000000
H          H       0.76056   0.79836   0.75229   0.0000000000
H          H       0.48944   0.04836   0.00229   0.0000000000
H          H       0.01056   0.45164   0.00229   0.0000000000
H          H       0.81911   0.75414   0.54462   0.0000000000
H          H       0.18089   0.24586   0.54462   0.0000000000
H          H       0.06911   0.49586   0.79462   0.0000000000
H          H       0.43089   0.00414   0.79462   0.0000000000
H          H       0.81911   0.25414   0.04462   0.0000000000
H          H       0.18089   0.74586   0.04462   0.0000000000
H          H       0.06911   0.99586   0.29462   0.0000000000
H          H       0.43089   0.50414   0.29462   0.0000000000
H          H       0.31911   0.75414   0.04462   0.0000000000
H          H       0.68089   0.24586   0.04462   0.0000000000
H          H       0.56911   0.49586   0.29462   0.0000000000
H          H       0.93089   0.00414   0.29462   0.0000000000
H          H       0.31911   0.25414   0.54462   0.0000000000
H          H       0.68089   0.74586   0.54462   0.0000000000
H          H       0.56911   0.99586   0.79462   0.0000000000
H          H       0.93089   0.50414   0.79462   0.0000000000
Si         Si      0.50000   0.50000   0.53223   0.0000000000
Si         Si      0.75000   0.75000   0.78223   0.0000000000
Si         Si      0.50000   0.00000   0.03223   0.0000000000
Si         Si      0.75000   0.25000   0.28223   0.0000000000
Si         Si      0.00000   0.50000   0.03223   0.0000000000
Si         Si      0.25000   0.75000   0.28223   0.0000000000
Si         Si      0.00000   0.00000   0.53223   0.0000000000
Si         Si      0.25000   0.25000   0.78223   0.0000000000
