data_crystal
 
_cell_length_a    19.05770
_cell_length_b    18.52070
_cell_length_c    7.07440
_cell_angle_alpha 88.57870
_cell_angle_beta  89.46300
_cell_angle_gamma 119.66020
 
_symmetry_space_group_name_Hall 'P 1'
_symmetry_space_group_name_H-M  'P 1'
 
loop_
_symmetry_equiv_pos_as_xyz
 'x,y,z' 
 
loop_
_atom_site_label
_atom_site_type_symbol
_atom_site_fract_x
_atom_site_fract_y
_atom_site_fract_z
_atom_site_charge
C          C       0.04293   0.08937   0.30271   0.0000000000
C          C       0.09093   0.05041   0.30536   0.0000000000
C          C       0.18095   0.10315   0.30664   0.0000000000
C          C       0.23197   0.08399   0.21881   0.0000000000
H          H       0.20603   0.16030   0.38273   0.0000000000
H          H       0.20922   0.02830   0.13851   0.0000000000
C          C       0.36793   0.09750   0.23116   0.0000000000
H          H       0.33972   0.03034   0.23469   0.0000000000
C          C       0.45210   0.14518   0.23302   0.0000000000
H          H       0.48715   0.11371   0.23779   0.0000000000
C          C       0.49029   0.23240   0.22729   0.0000000000
C          C       0.44237   0.27075   0.22182   0.0000000000
H          H       0.46970   0.33779   0.21557   0.0000000000
C          C       0.35832   0.22304   0.22167   0.0000000000
H          H       0.32320   0.25435   0.21264   0.0000000000
C          C       0.32046   0.13598   0.22668   0.0000000000
N          N       0.61482   0.36762   0.21548   0.0000000000
C          C       0.57942   0.28355   0.22373   0.0000000000
N          N       0.91402   0.95536   0.21455   0.0000000000
C          C       0.95426   0.03986   0.27148   0.0000000000
C          C       0.89776   0.07364   0.27427   0.0000000000
C          C       0.91331   0.14614   0.19124   0.0000000000
H          H       0.84046   0.03594   0.34848   0.0000000000
H          H       0.96868   0.18278   0.11000   0.0000000000
C          C       0.89347   0.26835   0.20585   0.0000000000
H          H       0.95851   0.30792   0.19970   0.0000000000
C          C       0.84474   0.30501   0.21319   0.0000000000
H          H       0.87361   0.37216   0.21222   0.0000000000
C          C       0.76010   0.25566   0.21974   0.0000000000
C          C       0.72554   0.16860   0.22235   0.0000000000
H          H       0.66060   0.12871   0.22631   0.0000000000
C          C       0.77449   0.13191   0.21667   0.0000000000
H          H       0.74600   0.06489   0.21402   0.0000000000
C          C       0.85904   0.18166   0.20750   0.0000000000
N          N       0.62664   0.24751   0.22588   0.0000000000
C          C       0.70853   0.29501   0.22017   0.0000000000
C          C       0.04581   0.96214   0.25478   0.0000000000
C          C       0.95761   0.91556   0.22678   0.0000000000
C          C       0.91556   0.82367   0.24421   0.0000000000
C          C       0.84102   0.77422   0.18313   0.0000000000
H          H       0.94774   0.79546   0.30856   0.0000000000
H          H       0.80599   0.80118   0.12757   0.0000000000
C          C       0.72064   0.63217   0.19689   0.0000000000
H          H       0.68222   0.65989   0.20158   0.0000000000
C          C       0.68525   0.54556   0.20370   0.0000000000
H          H       0.62005   0.50846   0.21309   0.0000000000
C          C       0.73353   0.50759   0.19962   0.0000000000
C          C       0.81771   0.55810   0.18504   0.0000000000
H          H       0.85665   0.53105   0.17855   0.0000000000
C          C       0.85294   0.64444   0.17731   0.0000000000
H          H       0.91792   0.68086   0.16056   0.0000000000
C          C       0.80481   0.68253   0.18731   0.0000000000
N          N       0.74282   0.37923   0.21171   0.0000000000
C          C       0.69625   0.41594   0.20938   0.0000000000
C          C       0.09139   0.91919   0.28213   0.0000000000
N          N       0.12741   0.88451   0.30347   0.0000000000
C          C       0.08173   0.17873   0.31851   0.0000000000
N          N       0.11314   0.25016   0.33139   0.0000000000
C          C       0.04293   0.08937   0.80271   0.0000000000
C          C       0.09093   0.05041   0.80536   0.0000000000
C          C       0.18095   0.10315   0.80664   0.0000000000
C          C       0.23197   0.08399   0.71881   0.0000000000
H          H       0.20603   0.16030   0.88274   0.0000000000
H          H       0.20922   0.02830   0.63851   0.0000000000
C          C       0.36793   0.09750   0.73116   0.0000000000
H          H       0.33972   0.03034   0.73469   0.0000000000
C          C       0.45210   0.14518   0.73302   0.0000000000
H          H       0.48715   0.11371   0.73779   0.0000000000
C          C       0.49029   0.23240   0.72729   0.0000000000
C          C       0.44237   0.27075   0.72181   0.0000000000
H          H       0.46970   0.33779   0.71557   0.0000000000
C          C       0.35832   0.22304   0.72167   0.0000000000
H          H       0.32320   0.25435   0.71264   0.0000000000
C          C       0.32046   0.13598   0.72669   0.0000000000
N          N       0.61482   0.36762   0.71548   0.0000000000
C          C       0.57942   0.28355   0.72374   0.0000000000
N          N       0.91402   0.95536   0.71455   0.0000000000
C          C       0.95426   0.03986   0.77148   0.0000000000
C          C       0.89776   0.07364   0.77428   0.0000000000
C          C       0.91331   0.14614   0.69124   0.0000000000
H          H       0.84046   0.03594   0.84847   0.0000000000
H          H       0.96868   0.18278   0.61000   0.0000000000
C          C       0.89347   0.26835   0.70585   0.0000000000
H          H       0.95851   0.30792   0.69970   0.0000000000
C          C       0.84474   0.30501   0.71320   0.0000000000
H          H       0.87361   0.37216   0.71222   0.0000000000
C          C       0.76010   0.25566   0.71974   0.0000000000
C          C       0.72554   0.16860   0.72235   0.0000000000
H          H       0.66060   0.12871   0.72632   0.0000000000
C          C       0.77449   0.13191   0.71667   0.0000000000
H          H       0.74600   0.06489   0.71402   0.0000000000
C          C       0.85904   0.18166   0.70750   0.0000000000
N          N       0.62664   0.24751   0.72588   0.0000000000
C          C       0.70853   0.29501   0.72017   0.0000000000
C          C       0.04581   0.96214   0.75478   0.0000000000
C          C       0.95761   0.91556   0.72678   0.0000000000
C          C       0.91556   0.82367   0.74421   0.0000000000
C          C       0.84102   0.77422   0.68313   0.0000000000
H          H       0.94774   0.79546   0.80856   0.0000000000
H          H       0.80599   0.80118   0.62757   0.0000000000
C          C       0.72064   0.63217   0.69690   0.0000000000
H          H       0.68222   0.65989   0.70158   0.0000000000
C          C       0.68525   0.54556   0.70371   0.0000000000
H          H       0.62005   0.50846   0.71309   0.0000000000
C          C       0.73353   0.50759   0.69963   0.0000000000
C          C       0.81771   0.55810   0.68504   0.0000000000
H          H       0.85665   0.53105   0.67854   0.0000000000
C          C       0.85294   0.64444   0.67731   0.0000000000
H          H       0.91792   0.68086   0.66056   0.0000000000
C          C       0.80481   0.68253   0.68731   0.0000000000
N          N       0.74282   0.37923   0.71171   0.0000000000
C          C       0.69625   0.41594   0.70937   0.0000000000
C          C       0.09139   0.91919   0.78213   0.0000000000
N          N       0.12741   0.88451   0.80348   0.0000000000
C          C       0.08173   0.17873   0.81851   0.0000000000
N          N       0.11314   0.25016   0.83139   0.0000000000
