data_crystal
 
_cell_length_a    31.56940
_cell_length_b    21.97440
_cell_length_c    10.00280
_cell_angle_alpha 90.00000
_cell_angle_beta  90.00000
_cell_angle_gamma 90.00000
 
_symmetry_space_group_name_Hall 'P 1'
_symmetry_space_group_name_H-M  'P 1'
 
loop_
_symmetry_equiv_pos_as_xyz
 'x,y,z' 
 
loop_
_atom_site_label
_atom_site_type_symbol
_atom_site_fract_x
_atom_site_fract_y
_atom_site_fract_z
_atom_site_charge
C          C       0.13541   0.03106   0.49890   0.0000000000
C          C       0.86459   0.96894   0.49890   0.0000000000
C          C       0.86459   0.03106   0.00110   0.0000000000
C          C       0.13541   0.96894   0.00110   0.0000000000
C          C       0.39259   0.46878   0.00440   0.0000000000
C          C       0.60741   0.53122   0.00440   0.0000000000
C          C       0.60741   0.46878   0.49560   0.0000000000
C          C       0.39259   0.53122   0.49560   0.0000000000
S          S       0.44461   0.56685   0.49229   0.0000000000
S          S       0.55539   0.43315   0.49229   0.0000000000
S          S       0.55539   0.56685   0.00771   0.0000000000
S          S       0.44461   0.43315   0.00771   0.0000000000
C          C       0.07886   0.11352   0.49473   0.0000000000
C          C       0.92114   0.88648   0.49473   0.0000000000
C          C       0.92114   0.11352   0.00527   0.0000000000
C          C       0.07886   0.88648   0.00527   0.0000000000
C          C       0.09178   0.05118   0.49678   0.0000000000
C          C       0.90822   0.94882   0.49678   0.0000000000
C          C       0.90822   0.05118   0.00321   0.0000000000
C          C       0.09178   0.94882   0.00321   0.0000000000
C          C       0.02164   0.80432   0.00215   0.0000000000
C          C       0.97836   0.19568   0.00215   0.0000000000
C          C       0.97836   0.80432   0.49784   0.0000000000
C          C       0.02164   0.19568   0.49784   0.0000000000
C          C       0.03565   0.86704   0.00209   0.0000000000
C          C       0.96435   0.13296   0.00209   0.0000000000
C          C       0.96435   0.86704   0.49791   0.0000000000
C          C       0.03565   0.13296   0.49791   0.0000000000
C          C       0.11417   0.83899   0.01231   0.0000000000
C          C       0.88583   0.16101   0.01231   0.0000000000
C          C       0.88583   0.83899   0.48769   0.0000000000
C          C       0.11417   0.16101   0.48769   0.0000000000
C          C       0.11901   0.79149   0.41847   0.0000000000
C          C       0.88099   0.20851   0.41847   0.0000000000
C          C       0.88099   0.79149   0.08153   0.0000000000
C          C       0.11901   0.20851   0.08153   0.0000000000
C          C       0.14534   0.84150   0.11367   0.0000000000
C          C       0.85466   0.15850   0.11367   0.0000000000
C          C       0.85466   0.84150   0.38632   0.0000000000
C          C       0.14534   0.15850   0.38632   0.0000000000
C          C       0.15290   0.75019   0.42338   0.0000000000
C          C       0.84710   0.24981   0.42338   0.0000000000
C          C       0.84710   0.75019   0.07662   0.0000000000
C          C       0.15290   0.24981   0.07662   0.0000000000
C          C       0.17884   0.79999   0.12078   0.0000000000
C          C       0.82116   0.20001   0.12078   0.0000000000
C          C       0.82116   0.79999   0.37922   0.0000000000
C          C       0.17884   0.20001   0.37922   0.0000000000
C          C       0.18410   0.75371   0.02419   0.0000000000
C          C       0.81590   0.24629   0.02419   0.0000000000
C          C       0.81590   0.75371   0.47582   0.0000000000
C          C       0.18410   0.24629   0.47582   0.0000000000
N          N       0.21706   0.70928   0.04041   0.0000000000
N          N       0.78294   0.29072   0.04041   0.0000000000
N          N       0.78294   0.70928   0.45960   0.0000000000
N          N       0.21706   0.29072   0.45960   0.0000000000
C          C       0.24867   0.70184   0.45952   0.0000000000
C          C       0.75133   0.29816   0.45952   0.0000000000
C          C       0.75133   0.70184   0.04048   0.0000000000
C          C       0.24867   0.29816   0.04048   0.0000000000
C          C       0.28396   0.65662   0.47506   0.0000000000
C          C       0.71604   0.34338   0.47506   0.0000000000
C          C       0.71604   0.65662   0.02494   0.0000000000
C          C       0.28396   0.34338   0.02494   0.0000000000
C          C       0.28452   0.60716   0.06531   0.0000000000
C          C       0.71548   0.39284   0.06531   0.0000000000
C          C       0.71548   0.60716   0.43469   0.0000000000
C          C       0.28452   0.39284   0.43469   0.0000000000
C          C       0.32014   0.66294   0.39310   0.0000000000
C          C       0.67986   0.33706   0.39310   0.0000000000
C          C       0.67986   0.66294   0.10690   0.0000000000
C          C       0.32014   0.33706   0.10690   0.0000000000
C          C       0.31875   0.56670   0.07175   0.0000000000
C          C       0.68125   0.43330   0.07175   0.0000000000
C          C       0.68125   0.56670   0.42825   0.0000000000
C          C       0.31875   0.43330   0.42825   0.0000000000
C          C       0.35471   0.62346   0.40137   0.0000000000
C          C       0.64529   0.37654   0.40137   0.0000000000
C          C       0.64529   0.62346   0.09863   0.0000000000
C          C       0.35471   0.37654   0.09863   0.0000000000
C          C       0.35503   0.57340   0.48994   0.0000000000
C          C       0.64497   0.42660   0.48994   0.0000000000
C          C       0.64497   0.57340   0.01006   0.0000000000
C          C       0.35503   0.42660   0.01006   0.0000000000
H          H       0.16315   0.05996   0.49952   0.0000000000
H          H       0.83685   0.94004   0.49952   0.0000000000
H          H       0.83685   0.05996   0.00048   0.0000000000
H          H       0.16315   0.94004   0.00048   0.0000000000
H          H       0.04194   0.76463   0.00491   0.0000000000
H          H       0.95806   0.23537   0.00491   0.0000000000
H          H       0.95806   0.76463   0.49509   0.0000000000
H          H       0.04194   0.23537   0.49509   0.0000000000
H          H       0.09631   0.78705   0.33719   0.0000000000
H          H       0.90369   0.21295   0.33719   0.0000000000
H          H       0.90369   0.78705   0.16281   0.0000000000
H          H       0.09631   0.21295   0.16281   0.0000000000
H          H       0.14303   0.87622   0.19089   0.0000000000
H          H       0.85697   0.12378   0.19089   0.0000000000
H          H       0.85697   0.87622   0.30911   0.0000000000
H          H       0.14303   0.12378   0.30911   0.0000000000
H          H       0.15490   0.71467   0.34795   0.0000000000
H          H       0.84510   0.28533   0.34795   0.0000000000
H          H       0.84510   0.71467   0.15205   0.0000000000
H          H       0.15490   0.28533   0.15205   0.0000000000
H          H       0.20172   0.80425   0.20155   0.0000000000
H          H       0.79828   0.19575   0.20155   0.0000000000
H          H       0.79828   0.80425   0.29845   0.0000000000
H          H       0.20172   0.19575   0.29845   0.0000000000
H          H       0.25267   0.73161   0.37024   0.0000000000
H          H       0.74733   0.26839   0.37024   0.0000000000
H          H       0.74733   0.73161   0.12976   0.0000000000
H          H       0.25267   0.26839   0.12976   0.0000000000
H          H       0.25761   0.60004   0.13145   0.0000000000
H          H       0.74239   0.39996   0.13145   0.0000000000
H          H       0.74239   0.60004   0.36856   0.0000000000
H          H       0.25761   0.39996   0.36856   0.0000000000
H          H       0.32134   0.70022   0.32140   0.0000000000
H          H       0.67866   0.29978   0.32140   0.0000000000
H          H       0.67866   0.70022   0.17860   0.0000000000
H          H       0.32134   0.29978   0.17860   0.0000000000
H          H       0.31741   0.52941   0.14330   0.0000000000
H          H       0.68259   0.47059   0.14330   0.0000000000
H          H       0.68259   0.52941   0.35670   0.0000000000
H          H       0.31741   0.47059   0.35670   0.0000000000
H          H       0.38173   0.63103   0.33592   0.0000000000
H          H       0.61827   0.36897   0.33592   0.0000000000
H          H       0.61827   0.63103   0.16407   0.0000000000
H          H       0.38173   0.36897   0.16407   0.0000000000
Zn         Zn      0.00000   0.00000   0.00000   0.0000000000
N          N       0.06610   0.00000   0.00000   0.0000000000
N          N       0.93390   0.00000   0.00000   0.0000000000
N          N       0.00000   0.90393   0.00000   0.0000000000
N          N       0.00000   0.09607   0.00000   0.0000000000
C          C       0.47816   0.50000   0.00000   0.0000000000
C          C       0.52184   0.50000   0.00000   0.0000000000
C          C       0.13541   0.03106   0.99890   0.0000000000
C          C       0.86459   0.96894   0.99890   0.0000000000
C          C       0.86459   0.03106   0.50110   0.0000000000
C          C       0.13541   0.96894   0.50110   0.0000000000
C          C       0.39259   0.46878   0.50440   0.0000000000
C          C       0.60741   0.53122   0.50440   0.0000000000
C          C       0.60741   0.46878   0.99560   0.0000000000
C          C       0.39259   0.53122   0.99560   0.0000000000
S          S       0.44461   0.56685   0.99229   0.0000000000
S          S       0.55539   0.43315   0.99229   0.0000000000
S          S       0.55539   0.56685   0.50770   0.0000000000
S          S       0.44461   0.43315   0.50770   0.0000000000
C          C       0.07886   0.11352   0.99473   0.0000000000
C          C       0.92114   0.88648   0.99473   0.0000000000
C          C       0.92114   0.11352   0.50527   0.0000000000
C          C       0.07886   0.88648   0.50527   0.0000000000
C          C       0.09178   0.05118   0.99679   0.0000000000
C          C       0.90822   0.94882   0.99679   0.0000000000
C          C       0.90822   0.05118   0.50322   0.0000000000
C          C       0.09178   0.94882   0.50322   0.0000000000
C          C       0.02164   0.80432   0.50216   0.0000000000
C          C       0.97836   0.19568   0.50216   0.0000000000
C          C       0.97836   0.80432   0.99785   0.0000000000
C          C       0.02164   0.19568   0.99785   0.0000000000
C          C       0.03565   0.86704   0.50209   0.0000000000
C          C       0.96435   0.13296   0.50209   0.0000000000
C          C       0.96435   0.86704   0.99792   0.0000000000
C          C       0.03565   0.13296   0.99792   0.0000000000
C          C       0.11417   0.83899   0.51231   0.0000000000
C          C       0.88583   0.16101   0.51231   0.0000000000
C          C       0.88583   0.83899   0.98769   0.0000000000
C          C       0.11417   0.16101   0.98769   0.0000000000
C          C       0.11901   0.79149   0.91847   0.0000000000
C          C       0.88099   0.20851   0.91847   0.0000000000
C          C       0.88099   0.79149   0.58153   0.0000000000
C          C       0.11901   0.20851   0.58153   0.0000000000
C          C       0.14534   0.84150   0.61367   0.0000000000
C          C       0.85466   0.15850   0.61367   0.0000000000
C          C       0.85466   0.84150   0.88633   0.0000000000
C          C       0.14534   0.15850   0.88633   0.0000000000
C          C       0.15290   0.75019   0.92338   0.0000000000
C          C       0.84710   0.24981   0.92338   0.0000000000
C          C       0.84710   0.75019   0.57662   0.0000000000
C          C       0.15290   0.24981   0.57662   0.0000000000
C          C       0.17884   0.79999   0.62078   0.0000000000
C          C       0.82116   0.20001   0.62078   0.0000000000
C          C       0.82116   0.79999   0.87922   0.0000000000
C          C       0.17884   0.20001   0.87922   0.0000000000
C          C       0.18410   0.75371   0.52419   0.0000000000
C          C       0.81590   0.24629   0.52419   0.0000000000
C          C       0.81590   0.75371   0.97581   0.0000000000
C          C       0.18410   0.24629   0.97581   0.0000000000
N          N       0.21706   0.70928   0.54041   0.0000000000
N          N       0.78294   0.29072   0.54041   0.0000000000
N          N       0.78294   0.70928   0.95959   0.0000000000
N          N       0.21706   0.29072   0.95959   0.0000000000
C          C       0.24867   0.70184   0.95952   0.0000000000
C          C       0.75133   0.29816   0.95952   0.0000000000
C          C       0.75133   0.70184   0.54048   0.0000000000
C          C       0.24867   0.29816   0.54048   0.0000000000
C          C       0.28396   0.65662   0.97506   0.0000000000
C          C       0.71604   0.34338   0.97506   0.0000000000
C          C       0.71604   0.65662   0.52494   0.0000000000
C          C       0.28396   0.34338   0.52494   0.0000000000
C          C       0.28452   0.60716   0.56531   0.0000000000
C          C       0.71548   0.39284   0.56531   0.0000000000
C          C       0.71548   0.60716   0.93469   0.0000000000
C          C       0.28452   0.39284   0.93469   0.0000000000
C          C       0.32014   0.66294   0.89310   0.0000000000
C          C       0.67986   0.33706   0.89310   0.0000000000
C          C       0.67986   0.66294   0.60690   0.0000000000
C          C       0.32014   0.33706   0.60690   0.0000000000
C          C       0.31875   0.56670   0.57175   0.0000000000
C          C       0.68125   0.43330   0.57175   0.0000000000
C          C       0.68125   0.56670   0.92825   0.0000000000
C          C       0.31875   0.43330   0.92825   0.0000000000
C          C       0.35471   0.62346   0.90138   0.0000000000
C          C       0.64529   0.37654   0.90138   0.0000000000
C          C       0.64529   0.62346   0.59863   0.0000000000
C          C       0.35471   0.37654   0.59863   0.0000000000
C          C       0.35503   0.57340   0.98994   0.0000000000
C          C       0.64497   0.42660   0.98994   0.0000000000
C          C       0.64497   0.57340   0.51006   0.0000000000
C          C       0.35503   0.42660   0.51006   0.0000000000
H          H       0.16315   0.05996   0.99952   0.0000000000
H          H       0.83685   0.94004   0.99952   0.0000000000
H          H       0.83685   0.05996   0.50048   0.0000000000
H          H       0.16315   0.94004   0.50048   0.0000000000
H          H       0.04194   0.76463   0.50491   0.0000000000
H          H       0.95806   0.23537   0.50491   0.0000000000
H          H       0.95806   0.76463   0.99509   0.0000000000
H          H       0.04194   0.23537   0.99509   0.0000000000
H          H       0.09631   0.78705   0.83718   0.0000000000
H          H       0.90369   0.21295   0.83718   0.0000000000
H          H       0.90369   0.78705   0.66282   0.0000000000
H          H       0.09631   0.21295   0.66282   0.0000000000
H          H       0.14303   0.87622   0.69089   0.0000000000
H          H       0.85697   0.12378   0.69089   0.0000000000
H          H       0.85697   0.87622   0.80911   0.0000000000
H          H       0.14303   0.12378   0.80911   0.0000000000
H          H       0.15490   0.71467   0.84795   0.0000000000
H          H       0.84510   0.28533   0.84795   0.0000000000
H          H       0.84510   0.71467   0.65205   0.0000000000
H          H       0.15490   0.28533   0.65205   0.0000000000
H          H       0.20172   0.80425   0.70155   0.0000000000
H          H       0.79828   0.19575   0.70155   0.0000000000
H          H       0.79828   0.80425   0.79845   0.0000000000
H          H       0.20172   0.19575   0.79845   0.0000000000
H          H       0.25267   0.73161   0.87024   0.0000000000
H          H       0.74733   0.26839   0.87024   0.0000000000
H          H       0.74733   0.73161   0.62976   0.0000000000
H          H       0.25267   0.26839   0.62976   0.0000000000
H          H       0.25761   0.60004   0.63145   0.0000000000
H          H       0.74239   0.39996   0.63145   0.0000000000
H          H       0.74239   0.60004   0.86856   0.0000000000
H          H       0.25761   0.39996   0.86856   0.0000000000
H          H       0.32134   0.70022   0.82140   0.0000000000
H          H       0.67866   0.29978   0.82140   0.0000000000
H          H       0.67866   0.70022   0.67860   0.0000000000
H          H       0.32134   0.29978   0.67860   0.0000000000
H          H       0.31741   0.52941   0.64330   0.0000000000
H          H       0.68259   0.47059   0.64330   0.0000000000
H          H       0.68259   0.52941   0.85670   0.0000000000
H          H       0.31741   0.47059   0.85670   0.0000000000
H          H       0.38173   0.63103   0.83593   0.0000000000
H          H       0.61827   0.36897   0.83593   0.0000000000
H          H       0.61827   0.63103   0.66407   0.0000000000
H          H       0.38173   0.36897   0.66407   0.0000000000
Zn         Zn      0.00000   0.00000   0.50000   0.0000000000
N          N       0.06610   0.00000   0.50000   0.0000000000
N          N       0.93390   0.00000   0.50000   0.0000000000
N          N      -0.00000   0.90393   0.50000   0.0000000000
N          N       0.00000   0.09607   0.50000   0.0000000000
C          C       0.47816   0.50000   0.50000   0.0000000000
C          C       0.52184   0.50000   0.50000   0.0000000000
