data_crystal
 
_cell_length_a    46.99900
_cell_length_b    46.99900
_cell_length_c    10.82600
_cell_angle_alpha 90.00000
_cell_angle_beta  90.00000
_cell_angle_gamma 120.00000
 
_symmetry_space_group_name_Hall 'P 1'
_symmetry_space_group_name_H-M  'P 1'
 
loop_
_symmetry_equiv_pos_as_xyz
 'x,y,z' 
 
loop_
_atom_site_label
_atom_site_type_symbol
_atom_site_fract_x
_atom_site_fract_y
_atom_site_fract_z
C          C       0.03466   0.06787   0.20278 
C          C       0.93213   0.96679   0.20278 
C          C       0.03321   0.96534   0.20278 
C          C       0.96534   0.93213   0.20278 
C          C       0.06787   0.03321   0.20278 
C          C       0.96679   0.03466   0.20278 
C          C       0.98381   0.01689   0.19587 
C          C       0.98311   0.96692   0.19587 
C          C       0.03308   0.01619   0.19587 
C          C       0.01619   0.98311   0.19587 
C          C       0.01689   0.03308   0.19587 
C          C       0.96692   0.98381   0.19587 
C          C       0.96774   0.91392   0.10941 
C          C       0.08608   0.05382   0.10941 
C          C       0.94618   0.03226   0.10941 
C          C       0.03226   0.08608   0.10941 
C          C       0.91392   0.94618   0.10941 
C          C       0.05382   0.96774   0.10941 
C          C       0.95157   0.88142   0.11748 
C          C       0.11858   0.07015   0.11748 
C          C       0.92985   0.04843   0.11748 
C          C       0.04843   0.11858   0.11748 
C          C       0.88142   0.92985   0.11748 
C          C       0.07015   0.95157   0.11748 
C          C       0.93219   0.86645   0.21964 
C          C       0.13355   0.06574   0.21964 
C          C       0.93426   0.06781   0.21964 
C          C       0.06781   0.13355   0.21964 
C          C       0.86645   0.93426   0.21964 
C          C       0.06574   0.93219   0.21964 
C          C       0.92964   0.88472   0.31230 
C          C       0.11528   0.04492   0.31230 
C          C       0.95508   0.07036   0.31230 
C          C       0.07036   0.11528   0.31230 
C          C       0.88472   0.95508   0.31230 
C          C       0.04492   0.92964   0.31230 
C          C       0.94637   0.91715   0.30473 
C          C       0.08285   0.02922   0.30473 
C          C       0.97078   0.05363   0.30473 
C          C       0.05363   0.08285   0.30473 
C          C       0.91715   0.97078   0.30473 
C          C       0.02922   0.94637   0.30473 
H          H       0.98221   0.92492   0.03051 
H          H       0.07508   0.05729   0.03051 
H          H       0.94271   0.01779   0.03051 
H          H       0.01779   0.07508   0.03051 
H          H       0.92492   0.94271   0.03051 
H          H       0.05729   0.98221   0.03051 
H          H       0.95428   0.86850   0.04308 
H          H       0.13150   0.08578   0.04308 
H          H       0.91422   0.04572   0.04308 
H          H       0.04572   0.13150   0.04308 
H          H       0.86850   0.91422   0.04308 
H          H       0.08578   0.95428   0.04308 
H          H       0.91486   0.87373   0.39156 
H          H       0.12627   0.04113   0.39156 
H          H       0.95887   0.08514   0.39156 
H          H       0.08514   0.12627   0.39156 
H          H       0.87373   0.95887   0.39156 
H          H       0.04113   0.91486   0.39156 
H          H       0.94485   0.93075   0.37864 
H          H       0.06925   0.01410   0.37864 
H          H       0.98590   0.05515   0.37864 
H          H       0.05515   0.06925   0.37864 
H          H       0.93075   0.98590   0.37864 
H          H       0.01410   0.94485   0.37864 
C          C       0.44708   0.34025   0.37033 
C          C       0.65975   0.10683   0.37033 
C          C       0.89317   0.55292   0.37033 
C          C       0.55292   0.65975   0.37033 
C          C       0.34025   0.89317   0.37033 
C          C       0.10683   0.44708   0.37033 
N          N       0.16685   0.08159   0.23390 
N          N       0.91841   0.08526   0.23390 
N          N       0.91474   0.83315   0.23390 
N          N       0.83315   0.91841   0.23390 
N          N       0.08159   0.91474   0.23390 
N          N       0.08526   0.16685   0.23390 
C          C       0.18763   0.10314   0.16309 
C          C       0.89686   0.08449   0.16309 
C          C       0.91551   0.81237   0.16309 
C          C       0.81237   0.89686   0.16309 
C          C       0.10314   0.91551   0.16309 
C          C       0.08449   0.18763   0.16309 
C          C       0.36866   0.20765   0.31611 
C          C       0.79235   0.16101   0.31611 
C          C       0.83899   0.63134   0.31611 
C          C       0.63134   0.79235   0.31611 
C          C       0.20765   0.83899   0.31611 
C          C       0.16101   0.36866   0.31611 
C          C       0.33712   0.19350   0.28321 
C          C       0.80650   0.14362   0.28321 
C          C       0.85638   0.66288   0.28321 
C          C       0.66288   0.80650   0.28321 
C          C       0.19350   0.85638   0.28321 
C          C       0.14362   0.33712   0.28321 
C          C       0.31903   0.16096   0.27341 
C          C       0.83904   0.15807   0.27341 
C          C       0.84193   0.68097   0.27341 
C          C       0.68097   0.83904   0.27341 
C          C       0.16096   0.84193   0.27341 
C          C       0.15807   0.31903   0.27341 
C          C       0.33307   0.14275   0.29261 
C          C       0.85725   0.19032   0.29261 
C          C       0.80968   0.66693   0.29261 
C          C       0.66693   0.85725   0.29261 
C          C       0.14275   0.80968   0.29261 
C          C       0.19032   0.33307   0.29261 
C          C       0.36485   0.15674   0.32220 
C          C       0.84326   0.20811   0.32220 
C          C       0.79189   0.63515   0.32220 
C          C       0.63515   0.84326   0.32220 
C          C       0.15674   0.79189   0.32220 
C          C       0.20811   0.36485   0.32220 
C          C       0.38215   0.18912   0.33598 
C          C       0.81088   0.19303   0.33598 
C          C       0.80697   0.61785   0.33598 
C          C       0.61785   0.81088   0.33598 
C          C       0.18912   0.80697   0.33598 
C          C       0.19303   0.38215   0.33598 
C          C       0.38049   0.13803   0.33564 
C          C       0.86197   0.24246   0.33564 
C          C       0.75754   0.61951   0.33564 
C          C       0.61951   0.86197   0.33564 
C          C       0.13803   0.75754   0.33564 
C          C       0.24246   0.38049   0.33564 
C          C       0.28539   0.14591   0.24448 
C          C       0.85409   0.13948   0.24448 
C          C       0.86052   0.71461   0.24448 
C          C       0.71461   0.85409   0.24448 
C          C       0.14591   0.86052   0.24448 
C          C       0.13948   0.28539   0.24448 
C          C       0.38803   0.24178   0.33014 
C          C       0.75822   0.14625   0.33014 
C          C       0.85375   0.61197   0.33014 
C          C       0.61197   0.75822   0.33014 
C          C       0.24178   0.85375   0.33014 
C          C       0.14625   0.38803   0.33014 
C          C       0.38782   0.26193   0.23967 
C          C       0.73807   0.12589   0.23967 
C          C       0.87411   0.61218   0.23967 
C          C       0.61218   0.73807   0.23967 
C          C       0.26193   0.87411   0.23967 
C          C       0.12589   0.38782   0.23967 
C          C       0.40774   0.29405   0.24994 
C          C       0.70595   0.11369   0.24994 
C          C       0.88631   0.59226   0.24994 
C          C       0.59226   0.70595   0.24994 
C          C       0.29405   0.88631   0.24994 
C          C       0.11369   0.40774   0.24994 
C          C       0.42782   0.30647   0.35185 
C          C       0.69353   0.12135   0.35185 
C          C       0.87865   0.57218   0.35185 
C          C       0.57218   0.69353   0.35185 
C          C       0.30647   0.87865   0.35185 
C          C       0.12135   0.42782   0.35185 
C          C       0.42767   0.28637   0.44289 
C          C       0.71363   0.14130   0.44289 
C          C       0.85870   0.57233   0.44289 
C          C       0.57233   0.71363   0.44289 
C          C       0.28637   0.85870   0.44289 
C          C       0.14130   0.42767   0.44289 
C          C       0.40812   0.25432   0.43188 
C          C       0.74568   0.15380   0.43188 
C          C       0.84620   0.59188   0.43188 
C          C       0.59188   0.74568   0.43188 
C          C       0.25432   0.84620   0.43188 
C          C       0.15380   0.40812   0.43188 
C          C       0.27485   0.15610   0.14425 
C          C       0.84390   0.11875   0.14425 
C          C       0.88125   0.72515   0.14425 
C          C       0.72515   0.84390   0.14425 
C          C       0.15610   0.88125   0.14425 
C          C       0.11875   0.27485   0.14425 
C          C       0.24305   0.14188   0.11772 
C          C       0.85812   0.10117   0.11772 
C          C       0.89883   0.75695   0.11772 
C          C       0.75695   0.85812   0.11772 
C          C       0.14188   0.89883   0.11772 
C          C       0.10117   0.24305   0.11772 
C          C       0.22119   0.11746   0.19164 
C          C       0.88254   0.10373   0.19164 
C          C       0.89627   0.77881   0.19164 
C          C       0.77881   0.88254   0.19164 
C          C       0.11746   0.89627   0.19164 
C          C       0.10373   0.22119   0.19164 
C          C       0.23177   0.10729   0.29211 
C          C       0.89271   0.12448   0.29211 
C          C       0.87552   0.76823   0.29211 
C          C       0.76823   0.89271   0.29211 
C          C       0.10729   0.87552   0.29211 
C          C       0.12448   0.23177   0.29211 
C          C       0.26358   0.12128   0.31776 
C          C       0.87872   0.14230   0.31776 
C          C       0.85770   0.73642   0.31776 
C          C       0.73642   0.87872   0.31776 
C          C       0.12128   0.85770   0.31776 
C          C       0.14230   0.26358   0.31776 
C          C       0.36513   0.10840   0.39037 
C          C       0.89160   0.25673   0.39037 
C          C       0.74327   0.63487   0.39037 
C          C       0.63487   0.89160   0.39037 
C          C       0.10840   0.74327   0.39037 
C          C       0.25673   0.36513   0.39037 
C          C       0.37989   0.09078   0.39979 
C          C       0.90922   0.28911   0.39979 
C          C       0.71089   0.62011   0.39979 
C          C       0.62011   0.90922   0.39979 
C          C       0.09078   0.71089   0.39979 
C          C       0.28911   0.37989   0.39979 
C          C       0.41043   0.10268   0.35696 
C          C       0.89732   0.30775   0.35696 
C          C       0.69225   0.58957   0.35696 
C          C       0.58957   0.89732   0.35696 
C          C       0.10268   0.69225   0.35696 
C          C       0.30775   0.41043   0.35696 
C          C       0.42607   0.13247   0.30457 
C          C       0.86753   0.29360   0.30457 
C          C       0.70640   0.57393   0.30457 
C          C       0.57393   0.86753   0.30457 
C          C       0.13247   0.70640   0.30457 
C          C       0.29360   0.42607   0.30457 
C          C       0.41115   0.14981   0.29285 
C          C       0.85019   0.26134   0.29285 
C          C       0.73866   0.58885   0.29285 
C          C       0.58885   0.85019   0.29285 
C          C       0.14981   0.73866   0.29285 
C          C       0.26134   0.41115   0.29285 
H          H       0.32644   0.20768   0.26932 
H          H       0.79232   0.11876   0.26932 
H          H       0.88124   0.67356   0.26932 
H          H       0.67356   0.79232   0.26932 
H          H       0.20768   0.88124   0.26932 
H          H       0.11876   0.32644   0.26932 
H          H       0.31938   0.11778   0.28070 
H          H       0.88222   0.20160   0.28070 
H          H       0.79840   0.68062   0.28070 
H          H       0.68062   0.88222   0.28070 
H          H       0.11778   0.79840   0.28070 
H          H       0.20160   0.31938   0.28070 
H          H       0.40648   0.20013   0.36136 
H          H       0.79987   0.20635   0.36136 
H          H       0.79365   0.59352   0.36136 
H          H       0.59352   0.79987   0.36136 
H          H       0.20013   0.79365   0.36136 
H          H       0.20635   0.40648   0.36136 
H          H       0.37266   0.25278   0.16012 
H          H       0.74722   0.11988   0.16012 
H          H       0.88012   0.62734   0.16012 
H          H       0.62734   0.74722   0.16012 
H          H       0.25278   0.88012   0.16012 
H          H       0.11988   0.37266   0.16012 
H          H       0.40707   0.30917   0.17939 
H          H       0.69083   0.09790   0.17939 
H          H       0.90210   0.59293   0.17939 
H          H       0.59293   0.69083   0.17939 
H          H       0.30917   0.90210   0.17939 
H          H       0.09790   0.40707   0.17939 
H          H       0.44272   0.29550   0.02280 
H          H       0.70450   0.14722   0.02280 
H          H       0.85278   0.55728   0.02280 
H          H       0.55728   0.70450   0.02280 
H          H       0.29550   0.85278   0.02280 
H          H       0.14722   0.44272   0.02280 
H          H       0.40849   0.23930   0.00360 
H          H       0.76070   0.16919   0.00360 
H          H       0.83081   0.59151   0.00360 
H          H       0.59151   0.76070   0.00360 
H          H       0.23930   0.83081   0.00360 
H          H       0.16919   0.40849   0.00360 
H          H       0.29127   0.17485   0.08571 
H          H       0.82515   0.11642   0.08571 
H          H       0.88358   0.70873   0.08571 
H          H       0.70873   0.82515   0.08571 
H          H       0.17485   0.88358   0.08571 
H          H       0.11642   0.29127   0.08571 
H          H       0.23551   0.15005   0.03950 
H          H       0.84995   0.08546   0.03950 
H          H       0.91454   0.76449   0.03950 
H          H       0.76449   0.84995   0.03950 
H          H       0.15005   0.91454   0.03950 
H          H       0.08546   0.23551   0.03950 
H          H       0.21552   0.08860   0.35115 
H          H       0.91140   0.12692   0.35115 
H          H       0.87308   0.78448   0.35115 
H          H       0.78448   0.91140   0.35115 
H          H       0.08860   0.87308   0.35115 
H          H       0.12692   0.21552   0.35115 
H          H       0.27115   0.11322   0.39621 
H          H       0.88678   0.15793   0.39621 
H          H       0.84207   0.72885   0.39621 
H          H       0.72885   0.88678   0.39621 
H          H       0.11322   0.84207   0.39621 
H          H       0.15793   0.27115   0.39621 
H          H       0.34172   0.09882   0.42591 
H          H       0.90118   0.24290   0.42591 
H          H       0.75710   0.65828   0.42591 
H          H       0.65828   0.90118   0.42591 
H          H       0.09882   0.75710   0.42591 
H          H       0.24290   0.34172   0.42591 
H          H       0.36739   0.06773   0.43993 
H          H       0.93227   0.29966   0.43993 
H          H       0.70034   0.63261   0.43993 
H          H       0.63261   0.93227   0.43993 
H          H       0.06773   0.70034   0.43993 
H          H       0.29966   0.36739   0.43993 
H          H       0.44941   0.14190   0.26837 
H          H       0.85810   0.30751   0.26837 
H          H       0.69249   0.55059   0.26837 
H          H       0.55059   0.85810   0.26837 
H          H       0.14190   0.69249   0.26837 
H          H       0.30751   0.44941   0.26837 
H          H       0.42345   0.17219   0.24735 
H          H       0.82781   0.25126   0.24735 
H          H       0.74874   0.57655   0.24735 
H          H       0.57655   0.82781   0.24735 
H          H       0.17219   0.74874   0.24735 
H          H       0.25126   0.42345   0.24735 
C          C       0.42447   0.08270   0.35656 
C          C       0.91730   0.34177   0.35656 
C          C       0.65823   0.57553   0.35656 
C          C       0.57553   0.91730   0.35656 
C          C       0.08270   0.65823   0.35656 
C          C       0.34177   0.42447   0.35656 
H          H       0.45470   0.34878   0.46334 
H          H       0.65122   0.10592   0.46334 
H          H       0.89408   0.54530   0.46334 
H          H       0.54530   0.65122   0.46334 
H          H       0.34878   0.89408   0.46334 
H          H       0.10592   0.45470   0.46334 
H          H       0.18090   0.11148   0.08332 
H          H       0.88852   0.06942   0.08332 
H          H       0.93058   0.81910   0.08332 
H          H       0.81910   0.88852   0.08332 
H          H       0.11148   0.93058   0.08332 
H          H       0.06942   0.18090   0.08332 
H          H       0.40912   0.05768   0.35976 
H          H       0.94232   0.35144   0.35976 
H          H       0.64856   0.59088   0.35976 
H          H       0.59088   0.94232   0.35976 
H          H       0.05768   0.64856   0.35976 
H          H       0.35144   0.40912   0.35976 
C          C       0.51527   0.97095   0.30056 
C          C       0.02905   0.54432   0.30056 
C          C       0.45568   0.48473   0.30056 
C          C       0.48473   0.02905   0.30056 
C          C       0.97095   0.45568   0.30056 
C          C       0.54432   0.51527   0.30056 
C          C       0.51360   0.99998   0.30178 
C          C       0.00002   0.51362   0.30178 
C          C       0.48638   0.48640   0.30178 
C          C       0.48640   0.00002   0.30178 
C          C       0.99998   0.48638   0.30178 
C          C       0.51362   0.51360   0.30178 
C          C       0.54419   0.02900   0.30695 
C          C       0.97100   0.51519   0.30695 
C          C       0.48481   0.45581   0.30695 
C          C       0.45581   0.97100   0.30695 
C          C       0.02900   0.48481   0.30695 
C          C       0.51519   0.54419   0.30695 
C          C       0.50357   0.94955   0.39858 
C          C       0.05045   0.55402   0.39858 
C          C       0.44598   0.49643   0.39858 
C          C       0.49643   0.05045   0.39858 
C          C       0.94955   0.44598   0.39858 
C          C       0.55402   0.50357   0.39858 
C          C       0.51214   0.92669   0.41026 
C          C       0.07331   0.58545   0.41026 
C          C       0.41455   0.48786   0.41026 
C          C       0.48786   0.07331   0.41026 
C          C       0.92669   0.41455   0.41026 
C          C       0.58545   0.51214   0.41026 
C          C       0.53299   0.92568   0.32569 
C          C       0.07432   0.60731   0.32569 
C          C       0.39269   0.46701   0.32569 
C          C       0.46701   0.07432   0.32569 
C          C       0.92568   0.39269   0.32569 
C          C       0.60731   0.53299   0.32569 
C          C       0.54301   0.94573   0.22396 
C          C       0.05427   0.59728   0.22396 
C          C       0.40272   0.45699   0.22396 
C          C       0.45699   0.05427   0.22396 
C          C       0.94573   0.40272   0.22396 
C          C       0.59728   0.54301   0.22396 
C          C       0.53415   0.96805   0.21155 
C          C       0.03195   0.56610   0.21155 
C          C       0.43390   0.46585   0.21155 
C          C       0.46585   0.03195   0.21155 
C          C       0.96805   0.43390   0.21155 
C          C       0.56610   0.53415   0.21155 
C          C       0.60747   0.07480   0.29592 
C          C       0.92520   0.53267   0.29592 
C          C       0.46733   0.39253   0.29592 
C          C       0.39253   0.92520   0.29592 
C          C       0.07480   0.46733   0.29592 
C          C       0.53267   0.60747   0.29592 
N          N       0.54567   0.90577   0.34596 
N          N       0.09423   0.63990   0.34596 
N          N       0.36010   0.45433   0.34596 
N          N       0.45433   0.09423   0.34596 
N          N       0.90577   0.36010   0.34596 
N          N       0.63990   0.54567   0.34596 
N          N       0.64041   0.09408   0.27927 
N          N       0.90592   0.54633   0.27927 
N          N       0.45367   0.35959   0.27927 
N          N       0.35959   0.90592   0.27927 
N          N       0.09408   0.45367   0.27927 
N          N       0.54633   0.64041   0.27927 
C          C       0.56439   0.03233   0.40328 
C          C       0.96767   0.53206   0.40328 
C          C       0.46794   0.43561   0.40328 
C          C       0.43561   0.96767   0.40328 
C          C       0.03233   0.46794   0.40328 
C          C       0.53206   0.56439   0.40328 
C          C       0.59567   0.05483   0.39809 
C          C       0.94517   0.54084   0.39809 
C          C       0.45916   0.40433   0.39809 
C          C       0.40433   0.94517   0.39809 
C          C       0.05483   0.45916   0.39809 
C          C       0.54084   0.59567   0.39809 
C          C       0.55545   0.04990   0.20755 
C          C       0.95010   0.50555   0.20755 
C          C       0.49445   0.44455   0.20755 
C          C       0.44455   0.95010   0.20755 
C          C       0.04990   0.49445   0.20755 
C          C       0.50555   0.55545   0.20755 
C          C       0.58705   0.07260   0.20180 
C          C       0.92740   0.51445   0.20180 
C          C       0.48555   0.41295   0.20180 
C          C       0.41295   0.92740   0.20180 
C          C       0.07260   0.48555   0.20180 
C          C       0.51445   0.58705   0.20180 
H          H       0.48959   0.95179   0.46973 
H          H       0.04821   0.53780   0.46973 
H          H       0.46220   0.51041   0.46973 
H          H       0.51041   0.04821   0.46973 
H          H       0.95179   0.46220   0.46973 
H          H       0.53780   0.48959   0.46973 
H          H       0.50420   0.91120   0.48907 
H          H       0.08880   0.59300   0.48907 
H          H       0.40700   0.49580   0.48907 
H          H       0.49580   0.08880   0.48907 
H          H       0.91120   0.40700   0.48907 
H          H       0.59300   0.50420   0.48907 
H          H       0.55874   0.94483   0.15693 
H          H       0.05517   0.61391   0.15693 
H          H       0.38609   0.44126   0.15693 
H          H       0.44126   0.05517   0.15693 
H          H       0.94483   0.38609   0.15693 
H          H       0.61391   0.55874   0.15693 
H          H       0.54362   0.98434   0.13634 
H          H       0.01566   0.55928   0.13634 
H          H       0.44072   0.45638   0.13634 
H          H       0.45638   0.01566   0.13634 
H          H       0.98434   0.44072   0.13634 
H          H       0.55928   0.54362   0.13634 
H          H       0.55626   0.01614   0.47907 
H          H       0.98386   0.54012   0.47907 
H          H       0.45988   0.44374   0.47907 
H          H       0.44374   0.98386   0.47907 
H          H       0.01614   0.45988   0.47907 
H          H       0.54012   0.55626   0.47907 
H          H       0.61092   0.05514   0.47016 
H          H       0.94486   0.55578   0.47016 
H          H       0.44422   0.38908   0.47016 
H          H       0.38908   0.94486   0.47016 
H          H       0.05514   0.44422   0.47016 
H          H       0.55578   0.61092   0.47016 
H          H       0.54033   0.04732   0.13131 
H          H       0.95268   0.49301   0.13131 
H          H       0.50699   0.45967   0.13131 
H          H       0.45967   0.95268   0.13131 
H          H       0.04732   0.50699   0.13131 
H          H       0.49301   0.54033   0.13131 
H          H       0.59587   0.08766   0.12191 
H          H       0.91234   0.50821   0.12191 
H          H       0.49179   0.40413   0.12191 
H          H       0.40413   0.91234   0.12191 
H          H       0.08766   0.49179   0.12191 
H          H       0.50821   0.59587   0.12191 
C          C       0.03466   0.06787   0.70278 
C          C       0.93213   0.96679   0.70278 
C          C       0.03321   0.96534   0.70278 
C          C       0.96534   0.93213   0.70278 
C          C       0.06787   0.03321   0.70278 
C          C       0.96679   0.03466   0.70278 
C          C       0.98381   0.01689   0.69588 
C          C       0.98311   0.96692   0.69588 
C          C       0.03308   0.01619   0.69588 
C          C       0.01619   0.98311   0.69588 
C          C       0.01689   0.03308   0.69588 
C          C       0.96692   0.98381   0.69588 
C          C       0.96774   0.91392   0.60941 
C          C       0.08608   0.05382   0.60941 
C          C       0.94618   0.03226   0.60941 
C          C       0.03226   0.08608   0.60941 
C          C       0.91392   0.94618   0.60941 
C          C       0.05382   0.96774   0.60941 
C          C       0.95157   0.88142   0.61747 
C          C       0.11858   0.07015   0.61747 
C          C       0.92985   0.04843   0.61747 
C          C       0.04843   0.11858   0.61747 
C          C       0.88142   0.92985   0.61747 
C          C       0.07015   0.95157   0.61747 
C          C       0.93219   0.86645   0.71964 
C          C       0.13355   0.06574   0.71964 
C          C       0.93426   0.06781   0.71964 
C          C       0.06781   0.13355   0.71964 
C          C       0.86645   0.93426   0.71964 
C          C       0.06574   0.93219   0.71964 
C          C       0.92964   0.88472   0.81230 
C          C       0.11528   0.04492   0.81230 
C          C       0.95508   0.07036   0.81230 
C          C       0.07036   0.11528   0.81230 
C          C       0.88472   0.95508   0.81230 
C          C       0.04492   0.92964   0.81230 
C          C       0.94637   0.91715   0.80473 
C          C       0.08285   0.02922   0.80473 
C          C       0.97078   0.05363   0.80473 
C          C       0.05363   0.08285   0.80473 
C          C       0.91715   0.97078   0.80473 
C          C       0.02922   0.94637   0.80473 
H          H       0.98221   0.92492   0.53051 
H          H       0.07508   0.05729   0.53051 
H          H       0.94271   0.01779   0.53051 
H          H       0.01779   0.07508   0.53051 
H          H       0.92492   0.94271   0.53051 
H          H       0.05729   0.98221   0.53051 
H          H       0.95428   0.86850   0.54308 
H          H       0.13150   0.08578   0.54308 
H          H       0.91422   0.04572   0.54308 
H          H       0.04572   0.13150   0.54308 
H          H       0.86850   0.91422   0.54308 
H          H       0.08578   0.95428   0.54308 
H          H       0.91486   0.87373   0.89156 
H          H       0.12627   0.04113   0.89156 
H          H       0.95887   0.08514   0.89156 
H          H       0.08514   0.12627   0.89156 
H          H       0.87373   0.95887   0.89156 
H          H       0.04113   0.91486   0.89156 
H          H       0.94485   0.93075   0.87864 
H          H       0.06925   0.01410   0.87864 
H          H       0.98590   0.05515   0.87864 
H          H       0.05515   0.06925   0.87864 
H          H       0.93075   0.98590   0.87864 
H          H       0.01410   0.94485   0.87864 
C          C       0.44708   0.34025   0.87033 
C          C       0.65975   0.10683   0.87033 
C          C       0.89317   0.55292   0.87033 
C          C       0.55292   0.65975   0.87033 
C          C       0.34025   0.89317   0.87033 
C          C       0.10683   0.44708   0.87033 
N          N       0.16685   0.08159   0.73390 
N          N       0.91841   0.08526   0.73390 
N          N       0.91474   0.83315   0.73390 
N          N       0.83315   0.91841   0.73390 
N          N       0.08159   0.91474   0.73390 
N          N       0.08526   0.16685   0.73390 
C          C       0.18763   0.10314   0.66309 
C          C       0.89686   0.08449   0.66309 
C          C       0.91551   0.81237   0.66309 
C          C       0.81237   0.89686   0.66309 
C          C       0.10314   0.91551   0.66309 
C          C       0.08449   0.18763   0.66309 
C          C       0.36866   0.20765   0.81611 
C          C       0.79235   0.16101   0.81611 
C          C       0.83899   0.63134   0.81611 
C          C       0.63134   0.79235   0.81611 
C          C       0.20765   0.83899   0.81611 
C          C       0.16101   0.36866   0.81611 
C          C       0.33712   0.19350   0.78321 
C          C       0.80650   0.14362   0.78321 
C          C       0.85638   0.66288   0.78321 
C          C       0.66288   0.80650   0.78321 
C          C       0.19350   0.85638   0.78321 
C          C       0.14362   0.33712   0.78321 
C          C       0.31903   0.16096   0.77341 
C          C       0.83904   0.15807   0.77341 
C          C       0.84193   0.68097   0.77341 
C          C       0.68097   0.83904   0.77341 
C          C       0.16096   0.84193   0.77341 
C          C       0.15807   0.31903   0.77341 
C          C       0.33307   0.14275   0.79260 
C          C       0.85725   0.19032   0.79260 
C          C       0.80968   0.66693   0.79260 
C          C       0.66693   0.85725   0.79260 
C          C       0.14275   0.80968   0.79260 
C          C       0.19032   0.33307   0.79260 
C          C       0.36485   0.15674   0.82220 
C          C       0.84326   0.20811   0.82220 
C          C       0.79189   0.63515   0.82220 
C          C       0.63515   0.84326   0.82220 
C          C       0.15674   0.79189   0.82220 
C          C       0.20811   0.36485   0.82220 
C          C       0.38215   0.18912   0.83599 
C          C       0.81088   0.19303   0.83599 
C          C       0.80697   0.61785   0.83599 
C          C       0.61785   0.81088   0.83599 
C          C       0.18912   0.80697   0.83599 
C          C       0.19303   0.38215   0.83599 
C          C       0.38049   0.13803   0.83564 
C          C       0.86197   0.24246   0.83564 
C          C       0.75754   0.61951   0.83564 
C          C       0.61951   0.86197   0.83564 
C          C       0.13803   0.75754   0.83564 
C          C       0.24246   0.38049   0.83564 
C          C       0.28539   0.14591   0.74448 
C          C       0.85409   0.13948   0.74448 
C          C       0.86052   0.71461   0.74448 
C          C       0.71461   0.85409   0.74448 
C          C       0.14591   0.86052   0.74448 
C          C       0.13948   0.28539   0.74448 
C          C       0.38803   0.24178   0.83014 
C          C       0.75822   0.14625   0.83014 
C          C       0.85375   0.61197   0.83014 
C          C       0.61197   0.75822   0.83014 
C          C       0.24178   0.85375   0.83014 
C          C       0.14625   0.38803   0.83014 
C          C       0.38782   0.26193   0.73967 
C          C       0.73807   0.12589   0.73967 
C          C       0.87411   0.61218   0.73967 
C          C       0.61218   0.73807   0.73967 
C          C       0.26193   0.87411   0.73967 
C          C       0.12589   0.38782   0.73967 
C          C       0.40774   0.29405   0.74994 
C          C       0.70595   0.11369   0.74994 
C          C       0.88631   0.59226   0.74994 
C          C       0.59226   0.70595   0.74994 
C          C       0.29405   0.88631   0.74994 
C          C       0.11369   0.40774   0.74994 
C          C       0.42782   0.30647   0.85185 
C          C       0.69353   0.12135   0.85185 
C          C       0.87865   0.57218   0.85185 
C          C       0.57218   0.69353   0.85185 
C          C       0.30647   0.87865   0.85185 
C          C       0.12135   0.42782   0.85185 
C          C       0.42767   0.28637   0.94289 
C          C       0.71363   0.14130   0.94289 
C          C       0.85870   0.57233   0.94289 
C          C       0.57233   0.71363   0.94289 
C          C       0.28637   0.85870   0.94289 
C          C       0.14130   0.42767   0.94289 
C          C       0.40812   0.25432   0.93188 
C          C       0.74568   0.15380   0.93188 
C          C       0.84620   0.59188   0.93188 
C          C       0.59188   0.74568   0.93188 
C          C       0.25432   0.84620   0.93188 
C          C       0.15380   0.40812   0.93188 
C          C       0.27485   0.15610   0.64425 
C          C       0.84390   0.11875   0.64425 
C          C       0.88125   0.72515   0.64425 
C          C       0.72515   0.84390   0.64425 
C          C       0.15610   0.88125   0.64425 
C          C       0.11875   0.27485   0.64425 
C          C       0.24305   0.14188   0.61772 
C          C       0.85812   0.10117   0.61772 
C          C       0.89883   0.75695   0.61772 
C          C       0.75695   0.85812   0.61772 
C          C       0.14188   0.89883   0.61772 
C          C       0.10117   0.24305   0.61772 
C          C       0.22119   0.11746   0.69164 
C          C       0.88254   0.10373   0.69164 
C          C       0.89627   0.77881   0.69164 
C          C       0.77881   0.88254   0.69164 
C          C       0.11746   0.89627   0.69164 
C          C       0.10373   0.22119   0.69164 
C          C       0.23177   0.10729   0.79211 
C          C       0.89271   0.12448   0.79211 
C          C       0.87552   0.76823   0.79211 
C          C       0.76823   0.89271   0.79211 
C          C       0.10729   0.87552   0.79211 
C          C       0.12448   0.23177   0.79211 
C          C       0.26358   0.12128   0.81776 
C          C       0.87872   0.14230   0.81776 
C          C       0.85770   0.73642   0.81776 
C          C       0.73642   0.87872   0.81776 
C          C       0.12128   0.85770   0.81776 
C          C       0.14230   0.26358   0.81776 
C          C       0.36513   0.10840   0.89037 
C          C       0.89160   0.25673   0.89037 
C          C       0.74327   0.63487   0.89037 
C          C       0.63487   0.89160   0.89037 
C          C       0.10840   0.74327   0.89037 
C          C       0.25673   0.36513   0.89037 
C          C       0.37989   0.09078   0.89980 
C          C       0.90922   0.28911   0.89980 
C          C       0.71089   0.62011   0.89980 
C          C       0.62011   0.90922   0.89980 
C          C       0.09078   0.71089   0.89980 
C          C       0.28911   0.37989   0.89980 
C          C       0.41043   0.10268   0.85696 
C          C       0.89732   0.30775   0.85696 
C          C       0.69225   0.58957   0.85696 
C          C       0.58957   0.89732   0.85696 
C          C       0.10268   0.69225   0.85696 
C          C       0.30775   0.41043   0.85696 
C          C       0.42607   0.13247   0.80458 
C          C       0.86753   0.29360   0.80458 
C          C       0.70640   0.57393   0.80458 
C          C       0.57393   0.86753   0.80458 
C          C       0.13247   0.70640   0.80458 
C          C       0.29360   0.42607   0.80458 
C          C       0.41115   0.14981   0.79285 
C          C       0.85019   0.26134   0.79285 
C          C       0.73866   0.58885   0.79285 
C          C       0.58885   0.85019   0.79285 
C          C       0.14981   0.73866   0.79285 
C          C       0.26134   0.41115   0.79285 
H          H       0.32644   0.20768   0.76931 
H          H       0.79232   0.11876   0.76931 
H          H       0.88124   0.67356   0.76931 
H          H       0.67356   0.79232   0.76931 
H          H       0.20768   0.88124   0.76931 
H          H       0.11876   0.32644   0.76931 
H          H       0.31938   0.11778   0.78070 
H          H       0.88222   0.20160   0.78070 
H          H       0.79840   0.68062   0.78070 
H          H       0.68062   0.88222   0.78070 
H          H       0.11778   0.79840   0.78070 
H          H       0.20160   0.31938   0.78070 
H          H       0.40648   0.20013   0.86136 
H          H       0.79987   0.20635   0.86136 
H          H       0.79365   0.59352   0.86136 
H          H       0.59352   0.79987   0.86136 
H          H       0.20013   0.79365   0.86136 
H          H       0.20635   0.40648   0.86136 
H          H       0.37266   0.25278   0.66012 
H          H       0.74722   0.11988   0.66012 
H          H       0.88012   0.62734   0.66012 
H          H       0.62734   0.74722   0.66012 
H          H       0.25278   0.88012   0.66012 
H          H       0.11988   0.37266   0.66012 
H          H       0.40707   0.30917   0.67939 
H          H       0.69083   0.09790   0.67939 
H          H       0.90210   0.59293   0.67939 
H          H       0.59293   0.69083   0.67939 
H          H       0.30917   0.90210   0.67939 
H          H       0.09790   0.40707   0.67939 
H          H       0.44272   0.29550   0.52280 
H          H       0.70450   0.14722   0.52280 
H          H       0.85278   0.55728   0.52280 
H          H       0.55728   0.70450   0.52280 
H          H       0.29550   0.85278   0.52280 
H          H       0.14722   0.44272   0.52280 
H          H       0.40849   0.23930   0.50360 
H          H       0.76070   0.16919   0.50360 
H          H       0.83081   0.59151   0.50360 
H          H       0.59151   0.76070   0.50360 
H          H       0.23930   0.83081   0.50360 
H          H       0.16919   0.40849   0.50360 
H          H       0.29127   0.17485   0.58571 
H          H       0.82515   0.11642   0.58571 
H          H       0.88358   0.70873   0.58571 
H          H       0.70873   0.82515   0.58571 
H          H       0.17485   0.88358   0.58571 
H          H       0.11642   0.29127   0.58571 
H          H       0.23551   0.15005   0.53951 
H          H       0.84995   0.08546   0.53951 
H          H       0.91454   0.76449   0.53951 
H          H       0.76449   0.84995   0.53951 
H          H       0.15005   0.91454   0.53951 
H          H       0.08546   0.23551   0.53951 
H          H       0.21552   0.08860   0.85115 
H          H       0.91140   0.12692   0.85115 
H          H       0.87308   0.78448   0.85115 
H          H       0.78448   0.91140   0.85115 
H          H       0.08860   0.87308   0.85115 
H          H       0.12692   0.21552   0.85115 
H          H       0.27115   0.11322   0.89621 
H          H       0.88678   0.15793   0.89621 
H          H       0.84207   0.72885   0.89621 
H          H       0.72885   0.88678   0.89621 
H          H       0.11322   0.84207   0.89621 
H          H       0.15793   0.27115   0.89621 
H          H       0.34172   0.09882   0.92591 
H          H       0.90118   0.24290   0.92591 
H          H       0.75710   0.65828   0.92591 
H          H       0.65828   0.90118   0.92591 
H          H       0.09882   0.75710   0.92591 
H          H       0.24290   0.34172   0.92591 
H          H       0.36739   0.06773   0.93994 
H          H       0.93227   0.29966   0.93994 
H          H       0.70034   0.63261   0.93994 
H          H       0.63261   0.93227   0.93994 
H          H       0.06773   0.70034   0.93994 
H          H       0.29966   0.36739   0.93994 
H          H       0.44941   0.14190   0.76837 
H          H       0.85810   0.30751   0.76837 
H          H       0.69249   0.55059   0.76837 
H          H       0.55059   0.85810   0.76837 
H          H       0.14190   0.69249   0.76837 
H          H       0.30751   0.44941   0.76837 
H          H       0.42345   0.17219   0.74735 
H          H       0.82781   0.25126   0.74735 
H          H       0.74874   0.57655   0.74735 
H          H       0.57655   0.82781   0.74735 
H          H       0.17219   0.74874   0.74735 
H          H       0.25126   0.42345   0.74735 
C          C       0.42447   0.08270   0.85656 
C          C       0.91730   0.34177   0.85656 
C          C       0.65823   0.57553   0.85656 
C          C       0.57553   0.91730   0.85656 
C          C       0.08270   0.65823   0.85656 
C          C       0.34177   0.42447   0.85656 
H          H       0.45470   0.34878   0.96334 
H          H       0.65122   0.10592   0.96334 
H          H       0.89408   0.54530   0.96334 
H          H       0.54530   0.65122   0.96334 
H          H       0.34878   0.89408   0.96334 
H          H       0.10592   0.45470   0.96334 
H          H       0.18090   0.11148   0.58332 
H          H       0.88852   0.06942   0.58332 
H          H       0.93058   0.81910   0.58332 
H          H       0.81910   0.88852   0.58332 
H          H       0.11148   0.93058   0.58332 
H          H       0.06942   0.18090   0.58332 
H          H       0.40912   0.05768   0.85976 
H          H       0.94232   0.35144   0.85976 
H          H       0.64856   0.59088   0.85976 
H          H       0.59088   0.94232   0.85976 
H          H       0.05768   0.64856   0.85976 
H          H       0.35144   0.40912   0.85976 
C          C       0.51527   0.97095   0.80055 
C          C       0.02905   0.54432   0.80055 
C          C       0.45568   0.48473   0.80055 
C          C       0.48473   0.02905   0.80055 
C          C       0.97095   0.45568   0.80055 
C          C       0.54432   0.51527   0.80055 
C          C       0.51360   0.99998   0.80178 
C          C       0.00002   0.51362   0.80178 
C          C       0.48638   0.48640   0.80178 
C          C       0.48640   0.00002   0.80178 
C          C       0.99998   0.48638   0.80178 
C          C       0.51362   0.51360   0.80178 
C          C       0.54419   0.02900   0.80695 
C          C       0.97100   0.51519   0.80695 
C          C       0.48481   0.45581   0.80695 
C          C       0.45581   0.97100   0.80695 
C          C       0.02900   0.48481   0.80695 
C          C       0.51519   0.54419   0.80695 
C          C       0.50357   0.94955   0.89858 
C          C       0.05045   0.55402   0.89858 
C          C       0.44598   0.49643   0.89858 
C          C       0.49643   0.05045   0.89858 
C          C       0.94955   0.44598   0.89858 
C          C       0.55402   0.50357   0.89858 
C          C       0.51214   0.92669   0.91026 
C          C       0.07331   0.58545   0.91026 
C          C       0.41455   0.48786   0.91026 
C          C       0.48786   0.07331   0.91026 
C          C       0.92669   0.41455   0.91026 
C          C       0.58545   0.51214   0.91026 
C          C       0.53299   0.92568   0.82568 
C          C       0.07432   0.60731   0.82568 
C          C       0.39269   0.46701   0.82568 
C          C       0.46701   0.07432   0.82568 
C          C       0.92568   0.39269   0.82568 
C          C       0.60731   0.53299   0.82568 
C          C       0.54301   0.94573   0.72396 
C          C       0.05427   0.59728   0.72396 
C          C       0.40272   0.45699   0.72396 
C          C       0.45699   0.05427   0.72396 
C          C       0.94573   0.40272   0.72396 
C          C       0.59728   0.54301   0.72396 
C          C       0.53415   0.96805   0.71155 
C          C       0.03195   0.56610   0.71155 
C          C       0.43390   0.46585   0.71155 
C          C       0.46585   0.03195   0.71155 
C          C       0.96805   0.43390   0.71155 
C          C       0.56610   0.53415   0.71155 
C          C       0.60747   0.07480   0.79592 
C          C       0.92520   0.53267   0.79592 
C          C       0.46733   0.39253   0.79592 
C          C       0.39253   0.92520   0.79592 
C          C       0.07480   0.46733   0.79592 
C          C       0.53267   0.60747   0.79592 
N          N       0.54567   0.90577   0.84596 
N          N       0.09423   0.63990   0.84596 
N          N       0.36010   0.45433   0.84596 
N          N       0.45433   0.09423   0.84596 
N          N       0.90577   0.36010   0.84596 
N          N       0.63990   0.54567   0.84596 
N          N       0.64041   0.09408   0.77928 
N          N       0.90592   0.54633   0.77928 
N          N       0.45367   0.35959   0.77928 
N          N       0.35959   0.90592   0.77928 
N          N       0.09408   0.45367   0.77928 
N          N       0.54633   0.64041   0.77928 
C          C       0.56439   0.03233   0.90328 
C          C       0.96767   0.53206   0.90328 
C          C       0.46794   0.43561   0.90328 
C          C       0.43561   0.96767   0.90328 
C          C       0.03233   0.46794   0.90328 
C          C       0.53206   0.56439   0.90328 
C          C       0.59567   0.05483   0.89809 
C          C       0.94517   0.54084   0.89809 
C          C       0.45916   0.40433   0.89809 
C          C       0.40433   0.94517   0.89809 
C          C       0.05483   0.45916   0.89809 
C          C       0.54084   0.59567   0.89809 
C          C       0.55545   0.04990   0.70754 
C          C       0.95010   0.50555   0.70754 
C          C       0.49445   0.44455   0.70754 
C          C       0.44455   0.95010   0.70754 
C          C       0.04990   0.49445   0.70754 
C          C       0.50555   0.55545   0.70754 
C          C       0.58705   0.07260   0.70180 
C          C       0.92740   0.51445   0.70180 
C          C       0.48555   0.41295   0.70180 
C          C       0.41295   0.92740   0.70180 
C          C       0.07260   0.48555   0.70180 
C          C       0.51445   0.58705   0.70180 
H          H       0.48959   0.95179   0.96973 
H          H       0.04821   0.53780   0.96973 
H          H       0.46220   0.51041   0.96973 
H          H       0.51041   0.04821   0.96973 
H          H       0.95179   0.46220   0.96973 
H          H       0.53780   0.48959   0.96973 
H          H       0.50420   0.91120   0.98907 
H          H       0.08880   0.59300   0.98907 
H          H       0.40700   0.49580   0.98907 
H          H       0.49580   0.08880   0.98907 
H          H       0.91120   0.40700   0.98907 
H          H       0.59300   0.50420   0.98907 
H          H       0.55874   0.94483   0.65694 
H          H       0.05517   0.61391   0.65694 
H          H       0.38609   0.44126   0.65694 
H          H       0.44126   0.05517   0.65694 
H          H       0.94483   0.38609   0.65694 
H          H       0.61391   0.55874   0.65694 
H          H       0.54362   0.98434   0.63634 
H          H       0.01566   0.55928   0.63634 
H          H       0.44072   0.45638   0.63634 
H          H       0.45638   0.01566   0.63634 
H          H       0.98434   0.44072   0.63634 
H          H       0.55928   0.54362   0.63634 
H          H       0.55626   0.01614   0.97907 
H          H       0.98386   0.54012   0.97907 
H          H       0.45988   0.44374   0.97907 
H          H       0.44374   0.98386   0.97907 
H          H       0.01614   0.45988   0.97907 
H          H       0.54012   0.55626   0.97907 
H          H       0.61092   0.05514   0.97016 
H          H       0.94486   0.55578   0.97016 
H          H       0.44422   0.38908   0.97016 
H          H       0.38908   0.94486   0.97016 
H          H       0.05514   0.44422   0.97016 
H          H       0.55578   0.61092   0.97016 
H          H       0.54033   0.04732   0.63131 
H          H       0.95268   0.49301   0.63131 
H          H       0.50699   0.45967   0.63131 
H          H       0.45967   0.95268   0.63131 
H          H       0.04732   0.50699   0.63131 
H          H       0.49301   0.54033   0.63131 
H          H       0.59587   0.08766   0.62191 
H          H       0.91234   0.50821   0.62191 
H          H       0.49179   0.40413   0.62191 
H          H       0.40413   0.91234   0.62191 
H          H       0.08766   0.49179   0.62191 
H          H       0.50821   0.59587   0.62191 
