data_crystal

_cell_length_a    46.99900
_cell_length_b    46.99900
_cell_length_c    10.83800
_cell_angle_alpha 90.00000
_cell_angle_beta  90.00000
_cell_angle_gamma 60.00000

_space_group_name_Hall 'P 1'
_space_group_name_H-M_alt  'P 1'

loop_
_symmetry_equiv_pos_as_xyz
'x,y,z' 

loop_
_atom_site_label
_atom_site_type_symbol
_atom_site_fract_x
_atom_site_fract_y
_atom_site_fract_z
C          C       0.90812   0.42685   0.16265 
C          C       0.09188   0.57315   0.16265 
N          N       0.93580   0.14611   0.23024 
N          N       0.06420   0.85389   0.23024 
C          C       0.93354   0.16609   0.31392 
C          C       0.06646   0.83391   0.31392 
C          C       0.84869   0.35169   0.22309 
C          C       0.15131   0.64831   0.22309 
C          C       0.86606   0.31951   0.24712 
C          C       0.13394   0.68049   0.24712 
C          C       0.85169   0.30115   0.25220 
C          C       0.14831   0.69885   0.25220 
C          C       0.81889   0.31604   0.23840 
C          C       0.18111   0.68396   0.23840 
C          C       0.80055   0.34873   0.21882 
C          C       0.19945   0.65127   0.21882 
C          C       0.81626   0.36576   0.20812 
C          C       0.18374   0.63424   0.20812 
C          C       0.76524   0.36552   0.20966 
C          C       0.23476   0.63448   0.20966 
C          C       0.87140   0.26643   0.27055 
C          C       0.12860   0.73357   0.27055 
C          C       0.86421   0.37082   0.20977 
C          C       0.13579   0.62918   0.20977 
C          C       0.88563   0.36961   0.29813 
C          C       0.11437   0.63039   0.29813 
C          C       0.89932   0.38843   0.28608 
C          C       0.10068   0.61157   0.28608 
C          C       0.89240   0.40834   0.18382 
C          C       0.10760   0.59166   0.18382 
C          C       0.87133   0.40922   0.09512 
C          C       0.12867   0.59078   0.09512 
C          C       0.85717   0.39102   0.10852 
C          C       0.14283   0.60898   0.10852 
C          C       0.89339   0.25410   0.36695 
C          C       0.10661   0.74590   0.36695 
C          C       0.91303   0.22174   0.38087 
C          C       0.08697   0.77826   0.38087 
C          C       0.91189   0.20056   0.29748 
C          C       0.08811   0.79944   0.29748 
C          C       0.88986   0.21286   0.20089 
C          C       0.11014   0.78714   0.20089 
C          C       0.86976   0.24527   0.18837 
C          C       0.13024   0.75473   0.18837 
C          C       0.74940   0.35039   0.16674 
C          C       0.25060   0.64961   0.16674 
C          C       0.71667   0.36607   0.16029 
C          C       0.28333   0.63393   0.16029 
C          C       0.69855   0.39764   0.19315 
C          C       0.30145   0.60236   0.19315 
C          C       0.71408   0.41309   0.23396 
C          C       0.28592   0.58691   0.23396 
C          C       0.74676   0.39723   0.24373 
C          C       0.25324   0.60277   0.24373 
H          H       0.89107   0.30848   0.25673 
H          H       0.10893   0.69152   0.25673 
H          H       0.80778   0.30213   0.24651 
H          H       0.19222   0.69787   0.24651 
H          H       0.80329   0.39036   0.18754 
H          H       0.19671   0.60964   0.18754 
H          H       0.89148   0.35439   0.37739 
H          H       0.10852   0.64561   0.37739 
H          H       0.91575   0.38695   0.35528 
H          H       0.08425   0.61305   0.35528 
H          H       0.86574   0.42414   0.01494 
H          H       0.13426   0.57586   0.01494 
H          H       0.84103   0.39235   0.03821 
H          H       0.15897   0.60765   0.03821 
H          H       0.89531   0.26958   0.43226 
H          H       0.10469   0.73042   0.43226 
H          H       0.92945   0.21323   0.45671 
H          H       0.07055   0.78677   0.45671 
H          H       0.88813   0.19743   0.13476 
H          H       0.11187   0.80257   0.13476 
H          H       0.85341   0.25388   0.11227 
H          H       0.14659   0.74612   0.11227 
H          H       0.76219   0.32636   0.13741 
H          H       0.23781   0.67364   0.13741 
H          H       0.70542   0.35339   0.12926 
H          H       0.29458   0.64661   0.12926 
H          H       0.70089   0.43714   0.26310 
H          H       0.29911   0.56286   0.26310 
H          H       0.75735   0.40990   0.28130 
H          H       0.24265   0.59010   0.28130 
C          C       0.66380   0.41271   0.19620 
C          C       0.33620   0.58729   0.19620 
H          H       0.90950   0.43348   0.06847 
H          H       0.09050   0.56652   0.06847 
H          H       0.94737   0.15801   0.39726 
H          H       0.05263   0.84199   0.39726 
H          H       0.65410   0.39768   0.21165 
H          H       0.34590   0.60232   0.21165 
C          C       0.45428   0.51731   0.21985 
C          C       0.54572   0.48269   0.21985 
C          C       0.48626   0.51404   0.21599 
C          C       0.51374   0.48596   0.21599 
C          C       0.48455   0.54521   0.20902 
C          C       0.51545   0.45479   0.20902 
C          C       0.44191   0.50855   0.12054 
C          C       0.55809   0.49145   0.12054 
C          C       0.40936   0.52077   0.10976 
C          C       0.59064   0.47923   0.10976 
C          C       0.38854   0.54275   0.19554 
C          C       0.61146   0.45725   0.19554 
C          C       0.40109   0.54998   0.29748 
C          C       0.59891   0.45002   0.29748 
C          C       0.43323   0.53728   0.30943 
C          C       0.56677   0.46272   0.30943 
C          C       0.45871   0.61115   0.22469 
C          C       0.54129   0.38885   0.22469 
N          N       0.35504   0.55740   0.18046 
N          N       0.64496   0.44260   0.18046 
N          N       0.44160   0.64475   0.24143 
N          N       0.55840   0.35525   0.24143 
C          C       0.46693   0.56512   0.11259 
C          C       0.53307   0.43488   0.11259 
C          C       0.45387   0.59737   0.12024 
C          C       0.54613   0.40263   0.12024 
C          C       0.49116   0.55859   0.31083 
C          C       0.50884   0.44141   0.31083 
C          C       0.47833   0.59127   0.31843 
C          C       0.52167   0.40873   0.31843 
H          H       0.45711   0.49395   0.04762 
H          H       0.54289   0.50605   0.04762 
H          H       0.40032   0.51444   0.03081 
H          H       0.59968   0.48556   0.03081 
H          H       0.38589   0.56610   0.36701 
H          H       0.61411   0.43390   0.36701 
H          H       0.44151   0.54495   0.38515 
H          H       0.55849   0.45505   0.38515 
H          H       0.46098   0.55572   0.03529 
H          H       0.53902   0.44428   0.03529 
H          H       0.43833   0.61151   0.04736 
H          H       0.56167   0.38849   0.04736 
H          H       0.50428   0.54410   0.38797 
H          H       0.49572   0.45590   0.38797 
H          H       0.48277   0.60116   0.39960 
H          H       0.51723   0.39884   0.39960 
C          C       0.01711   0.95425   0.22406 
C          C       0.98289   0.04575   0.22406 
C          C       0.98820   0.06079   0.32399 
C          C       0.01180   0.93921   0.32399 
C          C       0.97427   0.09381   0.32658 
C          C       0.02573   0.90619   0.32658 
C          C       0.95438   0.11229   0.22975 
C          C       0.04562   0.88771   0.22975 
C          C       0.95117   0.09689   0.12802 
C          C       0.04883   0.90311   0.12802 
C          C       0.96546   0.06449   0.12487 
C          C       0.03454   0.93551   0.12487 
H          H       0.00154   0.04728   0.40266 
H          H       0.99846   0.95272   0.40266 
H          H       0.97817   0.10463   0.40584 
H          H       0.02183   0.89537   0.40584 
H          H       0.93621   0.11026   0.05222 
H          H       0.06379   0.88974   0.05222 
H          H       0.96095   0.05394   0.04787 
H          H       0.03905   0.94606   0.04787 
C          C       0.43237   0.66477   0.15035 
C          C       0.56763   0.33523   0.15035 
N          N       0.14518   0.94152   0.18881 
N          N       0.85482   0.05848   0.18881 
C          C       0.16514   0.91533   0.24287 
C          C       0.83486   0.08467   0.24287 
C          C       0.35225   0.79997   0.18412 
C          C       0.64775   0.20003   0.18412 
C          C       0.31946   0.81555   0.19582 
C          C       0.68054   0.18445   0.19582 
C          C       0.30148   0.84856   0.19371 
C          C       0.69852   0.15144   0.19371 
C          C       0.31726   0.86556   0.18493 
C          C       0.68274   0.13444   0.18493 
C          C       0.35002   0.85060   0.17513 
C          C       0.64998   0.14940   0.17513 
C          C       0.36697   0.81784   0.17300 
C          C       0.63303   0.18216   0.17300 
C          C       0.36658   0.86907   0.16733 
C          C       0.63342   0.13093   0.16733 
C          C       0.26634   0.86563   0.20224 
C          C       0.73366   0.13437   0.20224 
C          C       0.37175   0.76509   0.17730 
C          C       0.62825   0.23491   0.17730 
C          C       0.37082   0.74548   0.26949 
C          C       0.62918   0.25452   0.26949 
C          C       0.39109   0.71291   0.26488 
C          C       0.60891   0.28709   0.26488 
C          C       0.41228   0.69922   0.16650 
C          C       0.58772   0.30078   0.16650 
C          C       0.41273   0.71887   0.07405 
C          C       0.58727   0.28113   0.07405 
C          C       0.39312   0.75120   0.07998 
C          C       0.60688   0.24880   0.07998 
C          C       0.25112   0.85541   0.28305 
C          C       0.74888   0.14459   0.28305 
C          C       0.21854   0.87180   0.29439 
C          C       0.78146   0.12820   0.29439 
C          C       0.19982   0.89898   0.22529 
C          C       0.80018   0.10102   0.22529 
C          C       0.21483   0.90923   0.14335 
C          C       0.78517   0.09077   0.14335 
C          C       0.24761   0.89282   0.13224 
C          C       0.75239   0.10718   0.13224 
C          C       0.35241   0.89857   0.11065 
C          C       0.64759   0.10143   0.11065 
C          C       0.36728   0.91628   0.10769 
C          C       0.63272   0.08372   0.10769 
C          C       0.39711   0.90480   0.15809 
C          C       0.60289   0.09520   0.15809 
C          C       0.41185   0.87508   0.21177 
C          C       0.58815   0.12492   0.21177 
C          C       0.39668   0.85759   0.21749 
C          C       0.60332   0.14241   0.21749 
H          H       0.30795   0.80196   0.20189 
H          H       0.69205   0.19804   0.20189 
H          H       0.30384   0.89067   0.18959 
H          H       0.69616   0.10933   0.18959 
H          H       0.39198   0.80589   0.16174 
H          H       0.60802   0.19411   0.16174 
H          H       0.35484   0.75541   0.34625 
H          H       0.64516   0.24459   0.34625 
H          H       0.38981   0.69843   0.33677 
H          H       0.61019   0.30157   0.33677 
H          H       0.42851   0.70912   0.49648 
H          H       0.57149   0.29088   0.49648 
H          H       0.39446   0.76548   0.00730 
H          H       0.60554   0.23452   0.00730 
H          H       0.26447   0.83500   0.33982 
H          H       0.73553   0.16500   0.33982 
H          H       0.20786   0.86322   0.35871 
H          H       0.79214   0.13678   0.35871 
H          H       0.20131   0.92984   0.08785 
H          H       0.79869   0.07016   0.08785 
H          H       0.25831   0.90133   0.06779 
H          H       0.74169   0.09867   0.06779 
H          H       0.32973   0.90813   0.06816 
H          H       0.67027   0.09187   0.06816 
H          H       0.35536   0.93915   0.06577 
H          H       0.64464   0.06085   0.06577 
H          H       0.43461   0.86585   0.25348 
H          H       0.56539   0.13415   0.25348 
H          H       0.40832   0.83539   0.26441 
H          H       0.59168   0.16461   0.26441 
C          C       0.41097   0.92533   0.16231 
C          C       0.58903   0.07467   0.16231 
H          H       0.43989   0.65649   0.05708 
H          H       0.56011   0.34351   0.05708 
H          H       0.15666   0.90387   0.30340 
H          H       0.84334   0.09613   0.30340 
H          H       0.39519   0.95026   0.16078 
H          H       0.60481   0.04974   0.16078 
C          C       0.52182   0.02412   0.19589 
C          C       0.47818   0.97588   0.19589 
C          C       0.51459   0.99799   0.19342 
C          C       0.48541   0.00201   0.19342 
C          C       0.54224   0.96673   0.18438 
C          C       0.45776   0.03327   0.18438 
C          C       0.50961   0.04856   0.10905 
C          C       0.49039   0.95144   0.10905 
C          C       0.52120   0.06929   0.10154 
C          C       0.47880   0.93071   0.10154 
C          C       0.54587   0.06537   0.17754 
C          C       0.45413   0.93463   0.17754 
C          C       0.55746   0.04158   0.26606 
C          C       0.44254   0.95842   0.26606 
C          C       0.54558   0.02140   0.27503 
C          C       0.45442   0.97860   0.27503 
C          C       0.60275   0.91561   0.18787 
C          C       0.39725   0.08439   0.18787 
N          N       0.55908   0.08540   0.16482 
N          N       0.44092   0.91460   0.16482 
N          N       0.63535   0.89479   0.20406 
N          N       0.36465   0.10521   0.20406 
C          C       0.56221   0.96100   0.08464 
C          C       0.43779   0.03900   0.08464 
C          C       0.59219   0.93584   0.08618 
C          C       0.40781   0.06416   0.08618 
C          C       0.55171   0.94542   0.28224 
C          C       0.44829   0.05458   0.28224 
C          C       0.58206   0.91996   0.28415 
C          C       0.41794   0.08004   0.28415 
H          H       0.49215   0.05086   0.04356 
H          H       0.50785   0.94914   0.04356 
H          H       0.51190   0.08753   0.03261 
H          H       0.48810   0.91247   0.03261 
H          H       0.57607   0.03836   0.32743 
H          H       0.42393   0.96164   0.32743 
H          H       0.55606   0.00264   0.34090 
H          H       0.44394   0.99736   0.34090 
H          H       0.55522   0.97749   0.00983 
H          H       0.44478   0.02251   0.00983 
H          H       0.60781   0.93384   0.01254 
H          H       0.39219   0.06616   0.01254 
H          H       0.53648   0.94972   0.36030 
H          H       0.46352   0.05028   0.36030 
H          H       0.58995   0.90463   0.36340 
H          H       0.41005   0.09537   0.36340 
C          C       0.95447   0.01592   0.23569 
C          C       0.04553   0.98408   0.23569 
C          C       0.06643   0.96582   0.32857 
C          C       0.93357   0.03418   0.32857 
C          C       0.09862   0.95279   0.31636 
C          C       0.90138   0.04721   0.31636 
C          C       0.11158   0.95763   0.20919 
C          C       0.88842   0.04237   0.20919 
C          C       0.09074   0.97857   0.12052 
C          C       0.90926   0.02143   0.12052 
C          C       0.05807   0.99133   0.13256 
C          C       0.94193   0.00867   0.13256 
H          H       0.05795   0.95972   0.40802 
H          H       0.94205   0.04028   0.40802 
H          H       0.11318   0.93834   0.39076 
H          H       0.88682   0.06166   0.39076 
H          H       0.09985   0.98373   0.03871 
H          H       0.90015   0.01627   0.03871 
H          H       0.04294   0.00498   0.05770 
H          H       0.95706   0.99502   0.05770 
C          C       0.65432   0.88134   0.11262 
C          C       0.34568   0.11866   0.11262 
O          O       0.91035   0.90341   0.36097 
O          O       0.08965   0.09659   0.36097 
C          C       0.88762   0.90460   0.40935 
C          C       0.11238   0.09540   0.40935 
C          C       0.78606   0.83239   0.15807 
C          C       0.21394   0.16761   0.15807 
C          C       0.79956   0.84961   0.20109 
C          C       0.20044   0.15039   0.20109 
C          C       0.83190   0.83516   0.21870 
C          C       0.16810   0.16484   0.21870 
C          C       0.85057   0.80315   0.19517 
C          C       0.14943   0.19685   0.19517 
C          C       0.83705   0.78568   0.15547 
C          C       0.16295   0.21432   0.15547 
C          C       0.80502   0.80067   0.13428 
C          C       0.19498   0.19933   0.13428 
C          C       0.85541   0.75144   0.14516 
C          C       0.14459   0.24856   0.14516 
C          C       0.84607   0.85318   0.26623 
C          C       0.15393   0.14682   0.26623 
C          C       0.75206   0.84643   0.14433 
C          C       0.24794   0.15357   0.14433 
C          C       0.73189   0.86567   0.23711 
C          C       0.26811   0.13433   0.23711 
C          C       0.70007   0.87622   0.22971 
C          C       0.29993   0.12378   0.22971 
C          C       0.68797   0.86790   0.12871 
C          C       0.31203   0.13210   0.12871 
C          C       0.70802   0.84913   0.03519 
C          C       0.29198   0.15087   0.03519 
C          C       0.73980   0.83841   0.04297 
C          C       0.26020   0.16159   0.04297 
C          C       0.83349   0.87241   0.37021 
C          C       0.16651   0.12759   0.37021 
C          C       0.84716   0.88906   0.41632 
C          C       0.15284   0.11094   0.41632 
C          C       0.87350   0.88691   0.35892 
C          C       0.12650   0.11309   0.35892 
C          C       0.88599   0.86780   0.25439 
C          C       0.11401   0.13220   0.25439 
C          C       0.87246   0.85096   0.20890 
C          C       0.12754   0.14904   0.20890 
C          C       0.88502   0.73653   0.09065 
C          C       0.11498   0.26347   0.09065 
C          C       0.90200   0.70408   0.08324 
C          C       0.09800   0.29592   0.08324 
C          C       0.88949   0.68622   0.12926 
C          C       0.11051   0.31378   0.12926 
C          C       0.85974   0.70117   0.18207 
C          C       0.14026   0.29883   0.18207 
C          C       0.84301   0.73341   0.19087 
C          C       0.15699   0.26659   0.19087 
H          H       0.78502   0.87424   0.21946 
H          H       0.21498   0.12576   0.21946 
H          H       0.87531   0.79163   0.21370 
H          H       0.12469   0.20837   0.21370 
H          H       0.79457   0.78723   0.10321 
H          H       0.20543   0.21277   0.10321 
H          H       0.74080   0.87196   0.31661 
H          H       0.25920   0.12804   0.31661 
H          H       0.68492   0.89127   0.30191 
H          H       0.31508   0.10873   0.30191 
H          H       0.69905   0.84286   0.45576 
H          H       0.30095   0.15714   0.45576 
H          H       0.75484   0.82383   0.46955 
H          H       0.24516   0.17617   0.46955 
H          H       0.81338   0.87416   0.41689 
H          H       0.18662   0.12584   0.41689 
H          H       0.83722   0.90353   0.49727 
H          H       0.16278   0.09647   0.49727 
H          H       0.90622   0.86582   0.20794 
H          H       0.09378   0.13418   0.20794 
H          H       0.88238   0.83645   0.12804 
H          H       0.11762   0.16355   0.12804 
H          H       0.89496   0.74993   0.05389 
H          H       0.10504   0.25007   0.05389 
H          H       0.92506   0.69289   0.04296 
H          H       0.07494   0.30711   0.04296 
H          H       0.84979   0.68795   0.22059 
H          H       0.15021   0.31205   0.22059 
H          H       0.82055   0.74422   0.23607 
H          H       0.17945   0.25578   0.23607 
C          C       0.90882   0.65222   0.13361 
C          C       0.09118   0.34778   0.13361 
H          H       0.64548   0.88243   0.02005 
H          H       0.35452   0.11757   0.02005 
H          H       0.87780   0.91892   0.49071 
H          H       0.12220   0.08108   0.49071 
H          H       0.93376   0.64186   0.12118 
H          H       0.06624   0.35814   0.12118 
C          C       0.03338   0.45760   0.22432 
C          C       0.96662   0.54240   0.22432 
C          C       0.00206   0.48540   0.22404 
C          C       0.99794   0.51460   0.22404 
C          C       0.97587   0.47841   0.22061 
C          C       0.02413   0.52159   0.22061 
C          C       0.05337   0.45053   0.12272 
C          C       0.94663   0.54947   0.12272 
C          C       0.07832   0.42027   0.10697 
C          C       0.92168   0.57973   0.10697 
C          C       0.08286   0.39710   0.19188 
C          C       0.91714   0.60290   0.19188 
C          C       0.06458   0.40484   0.29836 
C          C       0.93542   0.59516   0.29836 
C          C       0.04010   0.43492   0.31462 
C          C       0.95990   0.56508   0.31462 
C          C       0.93651   0.45205   0.23601 
C          C       0.06349   0.54795   0.23601 
N          N       0.10295   0.36508   0.16370 
N          N       0.89705   0.63492   0.16370 
N          N       0.91922   0.43591   0.25272 
N          N       0.08078   0.56409   0.25272 
C          C       0.97569   0.45884   0.12712 
C          C       0.02431   0.54116   0.12712 
C          C       0.95634   0.44588   0.13422 
C          C       0.04366   0.55412   0.13422 
C          C       0.95527   0.48550   0.32028 
C          C       0.04473   0.51450   0.32028 
C          C       0.93595   0.47228   0.32821 
C          C       0.06405   0.52772   0.32821 
H          H       0.04817   0.46757   0.05112 
H          H       0.95183   0.53243   0.05112 
H          H       0.09245   0.41437   0.02440 
H          H       0.90755   0.58563   0.02440 
H          H       0.06808   0.38702   0.36460 
H          H       0.93192   0.61298   0.36460 
H          H       0.02488   0.43989   0.39282 
H          H       0.97512   0.56011   0.39282 
H          H       0.99176   0.45231   0.05105 
H          H       0.00824   0.54769   0.05105 
H          H       0.95818   0.42974   0.06309 
H          H       0.04182   0.57026   0.06309 
H          H       0.95545   0.49973   0.39523 
H          H       0.04455   0.50027   0.39523 
H          H       0.92109   0.47718   0.40806 
H          H       0.07891   0.52282   0.40806 
C          C       0.01403   0.98616   0.23327 
C          C       0.98597   0.01384   0.23327 
C          C       0.90812   0.42685   0.66265 
C          C       0.09188   0.57315   0.66265 
N          N       0.93580   0.14611   0.73024 
N          N       0.06420   0.85389   0.73024 
C          C       0.93354   0.16609   0.81392 
C          C       0.06646   0.83391   0.81392 
C          C       0.84869   0.35169   0.72309 
C          C       0.15131   0.64831   0.72309 
C          C       0.86606   0.31951   0.74712 
C          C       0.13394   0.68049   0.74712 
C          C       0.85169   0.30115   0.75220 
C          C       0.14831   0.69885   0.75220 
C          C       0.81889   0.31604   0.73840 
C          C       0.18111   0.68396   0.73840 
C          C       0.80055   0.34873   0.71882 
C          C       0.19945   0.65127   0.71882 
C          C       0.81626   0.36576   0.70812 
C          C       0.18374   0.63424   0.70812 
C          C       0.76524   0.36552   0.70966 
C          C       0.23476   0.63448   0.70966 
C          C       0.87140   0.26643   0.77055 
C          C       0.12860   0.73357   0.77055 
C          C       0.86421   0.37082   0.70977 
C          C       0.13579   0.62918   0.70977 
C          C       0.88563   0.36961   0.79813 
C          C       0.11437   0.63039   0.79813 
C          C       0.89932   0.38843   0.78608 
C          C       0.10068   0.61157   0.78608 
C          C       0.89240   0.40834   0.68383 
C          C       0.10760   0.59166   0.68383 
C          C       0.87133   0.40922   0.59511 
C          C       0.12867   0.59078   0.59511 
C          C       0.85717   0.39102   0.60852 
C          C       0.14283   0.60898   0.60852 
C          C       0.89339   0.25410   0.86694 
C          C       0.10661   0.74590   0.86694 
C          C       0.91303   0.22174   0.88086 
C          C       0.08697   0.77826   0.88086 
C          C       0.91189   0.20056   0.79748 
C          C       0.08811   0.79944   0.79748 
C          C       0.88986   0.21286   0.70089 
C          C       0.11014   0.78714   0.70089 
C          C       0.86976   0.24527   0.68837 
C          C       0.13024   0.75473   0.68837 
C          C       0.74940   0.35039   0.66674 
C          C       0.25060   0.64961   0.66674 
C          C       0.71667   0.36607   0.66029 
C          C       0.28333   0.63393   0.66029 
C          C       0.69855   0.39764   0.69314 
C          C       0.30145   0.60236   0.69314 
C          C       0.71408   0.41309   0.73396 
C          C       0.28592   0.58691   0.73396 
C          C       0.74676   0.39723   0.74373 
C          C       0.25324   0.60277   0.74373 
H          H       0.89107   0.30848   0.75674 
H          H       0.10893   0.69152   0.75674 
H          H       0.80778   0.30213   0.74651 
H          H       0.19222   0.69787   0.74651 
H          H       0.80329   0.39036   0.68754 
H          H       0.19671   0.60964   0.68754 
H          H       0.89148   0.35439   0.87739 
H          H       0.10852   0.64561   0.87739 
H          H       0.91575   0.38695   0.85528 
H          H       0.08425   0.61305   0.85528 
H          H       0.86574   0.42414   0.51494 
H          H       0.13426   0.57586   0.51494 
H          H       0.84103   0.39235   0.53821 
H          H       0.15897   0.60765   0.53821 
H          H       0.89531   0.26958   0.93226 
H          H       0.10469   0.73042   0.93226 
H          H       0.92945   0.21323   0.95671 
H          H       0.07055   0.78677   0.95671 
H          H       0.88813   0.19743   0.63476 
H          H       0.11187   0.80257   0.63476 
H          H       0.85341   0.25388   0.61227 
H          H       0.14659   0.74612   0.61227 
H          H       0.76219   0.32636   0.63741 
H          H       0.23781   0.67364   0.63741 
H          H       0.70542   0.35339   0.62926 
H          H       0.29458   0.64661   0.62926 
H          H       0.70089   0.43714   0.76310 
H          H       0.29911   0.56286   0.76310 
H          H       0.75735   0.40990   0.78130 
H          H       0.24265   0.59010   0.78130 
C          C       0.66380   0.41271   0.69620 
C          C       0.33620   0.58729   0.69620 
H          H       0.90950   0.43348   0.56847 
H          H       0.09050   0.56652   0.56847 
H          H       0.94737   0.15801   0.89726 
H          H       0.05263   0.84199   0.89726 
H          H       0.65410   0.39768   0.71165 
H          H       0.34590   0.60232   0.71165 
C          C       0.45428   0.51731   0.71985 
C          C       0.54572   0.48269   0.71985 
C          C       0.48626   0.51404   0.71599 
C          C       0.51374   0.48596   0.71599 
C          C       0.48455   0.54521   0.70902 
C          C       0.51545   0.45479   0.70902 
C          C       0.44191   0.50855   0.62054 
C          C       0.55809   0.49145   0.62054 
C          C       0.40936   0.52077   0.60975 
C          C       0.59064   0.47923   0.60975 
C          C       0.38854   0.54275   0.69554 
C          C       0.61146   0.45725   0.69554 
C          C       0.40109   0.54998   0.79748 
C          C       0.59891   0.45002   0.79748 
C          C       0.43323   0.53728   0.80943 
C          C       0.56677   0.46272   0.80943 
C          C       0.45871   0.61115   0.72469 
C          C       0.54129   0.38885   0.72469 
N          N       0.35504   0.55740   0.68046 
N          N       0.64496   0.44260   0.68046 
N          N       0.44160   0.64475   0.74143 
N          N       0.55840   0.35525   0.74143 
C          C       0.46693   0.56512   0.61258 
C          C       0.53307   0.43488   0.61258 
C          C       0.45387   0.59737   0.62024 
C          C       0.54613   0.40263   0.62024 
C          C       0.49116   0.55859   0.81083 
C          C       0.50884   0.44141   0.81083 
C          C       0.47833   0.59127   0.81843 
C          C       0.52167   0.40873   0.81843 
H          H       0.45711   0.49395   0.54763 
H          H       0.54289   0.50605   0.54763 
H          H       0.40032   0.51444   0.53081 
H          H       0.59968   0.48556   0.53081 
H          H       0.38589   0.56610   0.86701 
H          H       0.61411   0.43390   0.86701 
H          H       0.44151   0.54495   0.88515 
H          H       0.55849   0.45505   0.88515 
H          H       0.46098   0.55572   0.53529 
H          H       0.53902   0.44428   0.53529 
H          H       0.43833   0.61151   0.54736 
H          H       0.56167   0.38849   0.54736 
H          H       0.50428   0.54410   0.88797 
H          H       0.49572   0.45590   0.88797 
H          H       0.48277   0.60116   0.89960 
H          H       0.51723   0.39884   0.89960 
C          C       0.01711   0.95425   0.72406 
C          C       0.98289   0.04575   0.72406 
C          C       0.98820   0.06079   0.82400 
C          C       0.01180   0.93921   0.82400 
C          C       0.97427   0.09381   0.82658 
C          C       0.02573   0.90619   0.82658 
C          C       0.95438   0.11229   0.72975 
C          C       0.04562   0.88771   0.72975 
C          C       0.95117   0.09689   0.62802 
C          C       0.04883   0.90311   0.62802 
C          C       0.96546   0.06449   0.62487 
C          C       0.03454   0.93551   0.62487 
H          H       0.00154   0.04728   0.90266 
H          H       0.99846   0.95272   0.90266 
H          H       0.97817   0.10463   0.90584 
H          H       0.02183   0.89537   0.90584 
H          H       0.93621   0.11026   0.55222 
H          H       0.06379   0.88974   0.55222 
H          H       0.96095   0.05394   0.54788 
H          H       0.03905   0.94606   0.54788 
C          C       0.43237   0.66477   0.65035 
C          C       0.56763   0.33523   0.65035 
N          N       0.14518   0.94152   0.68881 
N          N       0.85482   0.05848   0.68881 
C          C       0.16514   0.91533   0.74287 
C          C       0.83486   0.08467   0.74287 
C          C       0.35225   0.79997   0.68411 
C          C       0.64775   0.20003   0.68411 
C          C       0.31946   0.81555   0.69582 
C          C       0.68054   0.18445   0.69582 
C          C       0.30148   0.84856   0.69371 
C          C       0.69852   0.15144   0.69371 
C          C       0.31726   0.86556   0.68493 
C          C       0.68274   0.13444   0.68493 
C          C       0.35002   0.85060   0.67512 
C          C       0.64998   0.14940   0.67512 
C          C       0.36697   0.81784   0.67300 
C          C       0.63303   0.18216   0.67300 
C          C       0.36658   0.86907   0.66733 
C          C       0.63342   0.13093   0.66733 
C          C       0.26634   0.86563   0.70224 
C          C       0.73366   0.13437   0.70224 
C          C       0.37175   0.76509   0.67730 
C          C       0.62825   0.23491   0.67730 
C          C       0.37082   0.74548   0.76949 
C          C       0.62918   0.25452   0.76949 
C          C       0.39109   0.71291   0.76488 
C          C       0.60891   0.28709   0.76488 
C          C       0.41228   0.69922   0.66650 
C          C       0.58772   0.30078   0.66650 
C          C       0.41273   0.71887   0.57405 
C          C       0.58727   0.28113   0.57405 
C          C       0.39312   0.75120   0.57998 
C          C       0.60688   0.24880   0.57998 
C          C       0.25112   0.85541   0.78305 
C          C       0.74888   0.14459   0.78305 
C          C       0.21854   0.87180   0.79439 
C          C       0.78146   0.12820   0.79439 
C          C       0.19982   0.89898   0.72530 
C          C       0.80018   0.10102   0.72530 
C          C       0.21483   0.90923   0.64334 
C          C       0.78517   0.09077   0.64334 
C          C       0.24761   0.89282   0.63224 
C          C       0.75239   0.10718   0.63224 
C          C       0.35241   0.89857   0.61065 
C          C       0.64759   0.10143   0.61065 
C          C       0.36728   0.91628   0.60768 
C          C       0.63272   0.08372   0.60768 
C          C       0.39711   0.90480   0.65808 
C          C       0.60289   0.09520   0.65808 
C          C       0.41185   0.87508   0.71176 
C          C       0.58815   0.12492   0.71176 
C          C       0.39668   0.85759   0.71749 
C          C       0.60332   0.14241   0.71749 
H          H       0.30795   0.80196   0.70189 
H          H       0.69205   0.19804   0.70189 
H          H       0.30384   0.89067   0.68959 
H          H       0.69616   0.10933   0.68959 
H          H       0.39198   0.80589   0.66174 
H          H       0.60802   0.19411   0.66174 
H          H       0.35484   0.75541   0.84625 
H          H       0.64516   0.24459   0.84625 
H          H       0.38981   0.69843   0.83677 
H          H       0.61019   0.30157   0.83677 
H          H       0.42851   0.70912   0.99648 
H          H       0.57149   0.29088   0.99648 
H          H       0.39446   0.76548   0.50730 
H          H       0.60554   0.23452   0.50730 
H          H       0.26447   0.83500   0.83983 
H          H       0.73553   0.16500   0.83983 
H          H       0.20786   0.86322   0.85871 
H          H       0.79214   0.13678   0.85871 
H          H       0.20131   0.92984   0.58785 
H          H       0.79869   0.07016   0.58785 
H          H       0.25831   0.90133   0.56779 
H          H       0.74169   0.09867   0.56779 
H          H       0.32973   0.90813   0.56816 
H          H       0.67027   0.09187   0.56816 
H          H       0.35536   0.93915   0.56576 
H          H       0.64464   0.06085   0.56576 
H          H       0.43461   0.86585   0.75348 
H          H       0.56539   0.13415   0.75348 
H          H       0.40832   0.83539   0.76441 
H          H       0.59168   0.16461   0.76441 
C          C       0.41097   0.92533   0.66231 
C          C       0.58903   0.07467   0.66231 
H          H       0.43989   0.65649   0.55707 
H          H       0.56011   0.34351   0.55707 
H          H       0.15666   0.90387   0.80341 
H          H       0.84334   0.09613   0.80341 
H          H       0.39519   0.95026   0.66078 
H          H       0.60481   0.04974   0.66078 
C          C       0.52182   0.02412   0.69588 
C          C       0.47818   0.97588   0.69588 
C          C       0.51459   0.99799   0.69342 
C          C       0.48541   0.00201   0.69342 
C          C       0.54224   0.96673   0.68437 
C          C       0.45776   0.03327   0.68437 
C          C       0.50961   0.04856   0.60906 
C          C       0.49039   0.95144   0.60906 
C          C       0.52120   0.06929   0.60153 
C          C       0.47880   0.93071   0.60153 
C          C       0.54587   0.06537   0.67754 
C          C       0.45413   0.93463   0.67754 
C          C       0.55746   0.04158   0.76606 
C          C       0.44254   0.95842   0.76606 
C          C       0.54558   0.02140   0.77503 
C          C       0.45442   0.97860   0.77503 
C          C       0.60275   0.91561   0.68787 
C          C       0.39725   0.08439   0.68787 
N          N       0.55908   0.08540   0.66482 
N          N       0.44092   0.91460   0.66482 
N          N       0.63535   0.89479   0.70406 
N          N       0.36465   0.10521   0.70406 
C          C       0.56221   0.96100   0.58464 
C          C       0.43779   0.03900   0.58464 
C          C       0.59219   0.93584   0.58618 
C          C       0.40781   0.06416   0.58618 
C          C       0.55171   0.94542   0.78224 
C          C       0.44829   0.05458   0.78224 
C          C       0.58206   0.91996   0.78415 
C          C       0.41794   0.08004   0.78415 
H          H       0.49215   0.05086   0.54356 
H          H       0.50785   0.94914   0.54356 
H          H       0.51190   0.08753   0.53261 
H          H       0.48810   0.91247   0.53261 
H          H       0.57607   0.03836   0.82743 
H          H       0.42393   0.96164   0.82743 
H          H       0.55606   0.00264   0.84090 
H          H       0.44394   0.99736   0.84090 
H          H       0.55522   0.97749   0.50983 
H          H       0.44478   0.02251   0.50983 
H          H       0.60781   0.93384   0.51254 
H          H       0.39219   0.06616   0.51254 
H          H       0.53648   0.94972   0.86030 
H          H       0.46352   0.05028   0.86030 
H          H       0.58995   0.90463   0.86340 
H          H       0.41005   0.09537   0.86340 
C          C       0.95447   0.01592   0.73569 
C          C       0.04553   0.98408   0.73569 
C          C       0.06643   0.96582   0.82857 
C          C       0.93357   0.03418   0.82857 
C          C       0.09862   0.95279   0.81637 
C          C       0.90138   0.04721   0.81637 
C          C       0.11158   0.95763   0.70919 
C          C       0.88842   0.04237   0.70919 
C          C       0.09074   0.97857   0.62052 
C          C       0.90926   0.02143   0.62052 
C          C       0.05807   0.99133   0.63256 
C          C       0.94193   0.00867   0.63256 
H          H       0.05795   0.95972   0.90802 
H          H       0.94205   0.04028   0.90802 
H          H       0.11318   0.93834   0.89076 
H          H       0.88682   0.06166   0.89076 
H          H       0.09985   0.98373   0.53871 
H          H       0.90015   0.01627   0.53871 
H          H       0.04294   0.00498   0.55771 
H          H       0.95706   0.99502   0.55771 
C          C       0.65432   0.88134   0.61262 
C          C       0.34568   0.11866   0.61262 
O          O       0.91035   0.90341   0.86097 
O          O       0.08965   0.09659   0.86097 
C          C       0.88762   0.90460   0.90935 
C          C       0.11238   0.09540   0.90935 
C          C       0.78606   0.83239   0.65807 
C          C       0.21394   0.16761   0.65807 
C          C       0.79956   0.84961   0.70109 
C          C       0.20044   0.15039   0.70109 
C          C       0.83190   0.83516   0.71870 
C          C       0.16810   0.16484   0.71870 
C          C       0.85057   0.80315   0.69516 
C          C       0.14943   0.19685   0.69516 
C          C       0.83705   0.78568   0.65547 
C          C       0.16295   0.21432   0.65547 
C          C       0.80502   0.80067   0.63427 
C          C       0.19498   0.19933   0.63427 
C          C       0.85541   0.75144   0.64516 
C          C       0.14459   0.24856   0.64516 
C          C       0.84607   0.85318   0.76623 
C          C       0.15393   0.14682   0.76623 
C          C       0.75206   0.84643   0.64433 
C          C       0.24794   0.15357   0.64433 
C          C       0.73189   0.86567   0.73711 
C          C       0.26811   0.13433   0.73711 
C          C       0.70007   0.87622   0.72971 
C          C       0.29993   0.12378   0.72971 
C          C       0.68797   0.86790   0.62871 
C          C       0.31203   0.13210   0.62871 
C          C       0.70802   0.84913   0.53519 
C          C       0.29198   0.15087   0.53519 
C          C       0.73980   0.83841   0.54297 
C          C       0.26020   0.16159   0.54297 
C          C       0.83349   0.87241   0.87021 
C          C       0.16651   0.12759   0.87021 
C          C       0.84716   0.88906   0.91632 
C          C       0.15284   0.11094   0.91632 
C          C       0.87350   0.88691   0.85892 
C          C       0.12650   0.11309   0.85892 
C          C       0.88599   0.86780   0.75439 
C          C       0.11401   0.13220   0.75439 
C          C       0.87246   0.85096   0.70891 
C          C       0.12754   0.14904   0.70891 
C          C       0.88502   0.73653   0.59065 
C          C       0.11498   0.26347   0.59065 
C          C       0.90200   0.70408   0.58325 
C          C       0.09800   0.29592   0.58325 
C          C       0.88949   0.68622   0.62926 
C          C       0.11051   0.31378   0.62926 
C          C       0.85974   0.70117   0.68207 
C          C       0.14026   0.29883   0.68207 
C          C       0.84301   0.73341   0.69087 
C          C       0.15699   0.26659   0.69087 
H          H       0.78502   0.87424   0.71946 
H          H       0.21498   0.12576   0.71946 
H          H       0.87531   0.79163   0.71370 
H          H       0.12469   0.20837   0.71370 
H          H       0.79457   0.78723   0.60321 
H          H       0.20543   0.21277   0.60321 
H          H       0.74080   0.87196   0.81661 
H          H       0.25920   0.12804   0.81661 
H          H       0.68492   0.89127   0.80191 
H          H       0.31508   0.10873   0.80191 
H          H       0.69905   0.84286   0.95576 
H          H       0.30095   0.15714   0.95576 
H          H       0.75484   0.82383   0.96955 
H          H       0.24516   0.17617   0.96955 
H          H       0.81338   0.87416   0.91688 
H          H       0.18662   0.12584   0.91688 
H          H       0.83722   0.90353   0.99727 
H          H       0.16278   0.09647   0.99727 
H          H       0.90622   0.86582   0.70794 
H          H       0.09378   0.13418   0.70794 
H          H       0.88238   0.83645   0.62804 
H          H       0.11762   0.16355   0.62804 
H          H       0.89496   0.74993   0.55389 
H          H       0.10504   0.25007   0.55389 
H          H       0.92506   0.69289   0.54295 
H          H       0.07494   0.30711   0.54295 
H          H       0.84979   0.68795   0.72059 
H          H       0.15021   0.31205   0.72059 
H          H       0.82055   0.74422   0.73607 
H          H       0.17945   0.25578   0.73607 
C          C       0.90882   0.65222   0.63360 
C          C       0.09118   0.34778   0.63360 
H          H       0.64548   0.88243   0.52005 
H          H       0.35452   0.11757   0.52005 
H          H       0.87780   0.91892   0.99071 
H          H       0.12220   0.08108   0.99071 
H          H       0.93376   0.64186   0.62118 
H          H       0.06624   0.35814   0.62118 
C          C       0.03338   0.45760   0.72432 
C          C       0.96662   0.54240   0.72432 
C          C       0.00206   0.48540   0.72404 
C          C       0.99794   0.51460   0.72404 
C          C       0.97587   0.47841   0.72061 
C          C       0.02413   0.52159   0.72061 
C          C       0.05337   0.45053   0.62271 
C          C       0.94663   0.54947   0.62271 
C          C       0.07832   0.42027   0.60697 
C          C       0.92168   0.57973   0.60697 
C          C       0.08286   0.39710   0.69188 
C          C       0.91714   0.60290   0.69188 
C          C       0.06458   0.40484   0.79836 
C          C       0.93542   0.59516   0.79836 
C          C       0.04010   0.43492   0.81462 
C          C       0.95990   0.56508   0.81462 
C          C       0.93651   0.45205   0.73601 
C          C       0.06349   0.54795   0.73601 
N          N       0.10295   0.36508   0.66370 
N          N       0.89705   0.63492   0.66370 
N          N       0.91922   0.43591   0.75271 
N          N       0.08078   0.56409   0.75271 
C          C       0.97569   0.45884   0.62712 
C          C       0.02431   0.54116   0.62712 
C          C       0.95634   0.44588   0.63422 
C          C       0.04366   0.55412   0.63422 
C          C       0.95527   0.48550   0.82028 
C          C       0.04473   0.51450   0.82028 
C          C       0.93595   0.47228   0.82820 
C          C       0.06405   0.52772   0.82820 
H          H       0.04817   0.46757   0.55112 
H          H       0.95183   0.53243   0.55112 
H          H       0.09245   0.41437   0.52441 
H          H       0.90755   0.58563   0.52441 
H          H       0.06808   0.38702   0.86460 
H          H       0.93192   0.61298   0.86460 
H          H       0.02488   0.43989   0.89282 
H          H       0.97512   0.56011   0.89282 
H          H       0.99176   0.45231   0.55105 
H          H       0.00824   0.54769   0.55105 
H          H       0.95818   0.42974   0.56309 
H          H       0.04182   0.57026   0.56309 
H          H       0.95545   0.49973   0.89523 
H          H       0.04455   0.50027   0.89523 
H          H       0.92109   0.47718   0.90806 
H          H       0.07891   0.52282   0.90806 
C          C       0.01403   0.98616   0.73328 
C          C       0.98597   0.01384   0.73328 
