data_Py-3PE-BTD-COF
_audit_creation_date              0000-00-00
_audit_creation_method            'LanYouShi'
_symmetry_space_group_name_H-M    'P1'
_cell_length_a                    51.6403999
_cell_length_b                    54.2242012
_cell_length_c                    3.8403001
_cell_angle_alpha                 90.0000000
_cell_angle_beta                  90.0000000
_cell_angle_gamma                 90.0000000
loop_
_atom_site_label
_atom_site_type_symbol
_atom_site_fract_x
_atom_site_fract_y
_atom_site_fract_z
_atom_site_U_iso_or_equiv
_atom_site_adp_type
_atom_site_occupancy
        C1          C  0.5279465  0.5227023  0.1345226    0.00000       Uiso       1.00
        C2          C  0.4864863  0.5442575  0.0654518    0.00000       Uiso       1.00
        C3          C  0.4446965  0.5230147  0.1904637    0.00000       Uiso       1.00
        C4          C  0.4286888  0.5444961  0.2025383    0.00000       Uiso       1.00
        C5          C  0.4040044  0.5447161  0.0387553    0.00000       Uiso       1.00
        C6          C  0.3877142  0.5654758  0.0514697    0.00000       Uiso       1.00
        C7          C  0.3957599  0.5872502  0.2192215    0.00000       Uiso       1.00
        C8          C  0.4202293  0.5874679  0.3832675    0.00000       Uiso       1.00
        C9          C  0.4359877  0.5663097  0.3805760    0.00000       Uiso       1.00
        H1          H  0.4777269  0.5606796  0.0155116    0.00000       Uiso       1.00
        H2          H  0.3975379  0.5296599 -0.0962964    0.00000       Uiso       1.00
        H3          H  0.3699958  0.5646621 -0.0677388    0.00000       Uiso       1.00
        H4          H  0.4267340  0.6028016  0.5103546    0.00000       Uiso       1.00
        H5          H  0.4529953  0.5670949  0.5141432    0.00000       Uiso       1.00
       C10          C  0.0279500  0.0227001 -0.0816326    0.00000       Uiso       1.00
       C11          C  0.9864871  0.0442530 -0.0125666    0.00000       Uiso       1.00
       C12          C  0.9446900  0.0230140 -0.1374759    0.00000       Uiso       1.00
       C13          C  0.9286970  0.0445052 -0.1496553    0.00000       Uiso       1.00
       C14          C  0.9360291  0.0663047 -0.3277496    0.00000       Uiso       1.00
       C15          C  0.9203338  0.0875026 -0.3298905    0.00000       Uiso       1.00
       C16          C  0.8958859  0.0873490 -0.1652287    0.00000       Uiso       1.00
       C17          C  0.8877825  0.0655729  0.0020200    0.00000       Uiso       1.00
       C18          C  0.9040144  0.0447669  0.0141683    0.00000       Uiso       1.00
        H6          H  0.9777329  0.0606765  0.0373921    0.00000       Uiso       1.00
        H7          H  0.9530252  0.0670554 -0.4616022    0.00000       Uiso       1.00
        H8          H  0.9268787  0.1028225 -0.4569198    0.00000       Uiso       1.00
        H9          H  0.8700704  0.0647964  0.1214367    0.00000       Uiso       1.00
       H10          H  0.8975138  0.0297140  0.1489894    0.00000       Uiso       1.00
       C19          C  0.1380750  0.8522922 -0.2280647    0.00000       Uiso       1.00
       C20          C  0.1336692  0.8274315 -0.3239889    0.00000       Uiso       1.00
       C21          C  0.1530346  0.8094283 -0.2815325    0.00000       Uiso       1.00
       C22          C  0.1773663  0.8159680 -0.1425782    0.00000       Uiso       1.00
       C23          C  0.1821166  0.8406989 -0.0484418    0.00000       Uiso       1.00
       C24          C  0.1626674  0.8586179 -0.0908185    0.00000       Uiso       1.00
       C25          C  0.1952445  0.7993168 -0.0995421    0.00000       Uiso       1.00
       C26          C  0.2116520  0.7840722 -0.0580046    0.00000       Uiso       1.00
       C27          C  0.2296001  0.7675369 -0.0119284    0.00000       Uiso       1.00
       C28          C  0.2540183  0.7740558  0.1248317    0.00000       Uiso       1.00
       C29          C  0.2733262  0.7563663  0.1717369    0.00000       Uiso       1.00
       C30          C  0.2689695  0.7314311  0.0846391    0.00000       Uiso       1.00
       C31          C  0.2445310  0.7246959 -0.0514257    0.00000       Uiso       1.00
       C32          C  0.2250278  0.7425904 -0.0995187    0.00000       Uiso       1.00
       C33          C  0.2869853  0.7149197  0.1277050    0.00000       Uiso       1.00
       C34          C  0.3035575  0.6997991  0.1664093    0.00000       Uiso       1.00
       C35          C  0.3216499  0.6833205  0.2065379    0.00000       Uiso       1.00
       C36          C  0.3459539  0.6900456  0.3446508    0.00000       Uiso       1.00
       C37          C  0.3655336  0.6722195  0.3844054    0.00000       Uiso       1.00
       C38          C  0.3613712  0.6473568  0.2866128    0.00000       Uiso       1.00
       C39          C  0.3368127  0.6408514  0.1499286    0.00000       Uiso       1.00
       C40          C  0.3171543  0.6585899  0.1102182    0.00000       Uiso       1.00
        N1          N  0.2950266  0.7662798  0.3028615    0.00000       Uiso       1.00
        S1          S  0.2927050  0.7969131  0.3714871    0.00000       Uiso       1.00
        N2          N  0.2619707  0.7965441  0.2232862    0.00000       Uiso       1.00
       H11          H  0.1162087  0.8221093 -0.4255565    0.00000       Uiso       1.00
       H12          H  0.1491184  0.7915999 -0.3529807    0.00000       Uiso       1.00
       H13          H  0.1996495  0.8459383  0.0525711    0.00000       Uiso       1.00
       H14          H  0.1667496  0.8763682 -0.0191580    0.00000       Uiso       1.00
       H15          H  0.2406473  0.7067642 -0.1176910    0.00000       Uiso       1.00
       H16          H  0.2075364  0.7371559 -0.1995803    0.00000       Uiso       1.00
       H17          H  0.3496908  0.7078808  0.4175121    0.00000       Uiso       1.00
       H18          H  0.3829655  0.6776691  0.4855044    0.00000       Uiso       1.00
       H19          H  0.3329017  0.6230959  0.0768094    0.00000       Uiso       1.00
       H20          H  0.2996534  0.6532176  0.0096087    0.00000       Uiso       1.00
       C41          C  0.1181650  0.8698260 -0.2696894    0.00000       Uiso       1.00
        N3          N  0.1206574  0.8932759 -0.1543858    0.00000       Uiso       1.00
        N4          N  0.3791148  0.6065454  0.2097711    0.00000       Uiso       1.00
       C42          C  0.3814597  0.6299820  0.3261141    0.00000       Uiso       1.00
       H21          H  0.8987140  0.1354622 -0.3871759    0.00000       Uiso       1.00
       H22          H  0.6016735  0.3646363  0.4430669    0.00000       Uiso       1.00
       C43          C  0.4720539  0.4772974  0.1345226    0.00000       Uiso       1.00
       C44          C  0.5135141  0.4557422  0.0654518    0.00000       Uiso       1.00
       C45          C  0.5553039  0.4769850  0.1904637    0.00000       Uiso       1.00
       C46          C  0.5713117  0.4555036  0.2025383    0.00000       Uiso       1.00
       C47          C  0.5959960  0.4552837  0.0387553    0.00000       Uiso       1.00
       C48          C  0.6122862  0.4345239  0.0514697    0.00000       Uiso       1.00
       C49          C  0.6042405  0.4127495  0.2192215    0.00000       Uiso       1.00
       C50          C  0.5797712  0.4125318  0.3832675    0.00000       Uiso       1.00
       C51          C  0.5640128  0.4336900  0.3805760    0.00000       Uiso       1.00
       H23          H  0.5222735  0.4393201  0.0155116    0.00000       Uiso       1.00
       H24          H  0.6024625  0.4703398 -0.0962964    0.00000       Uiso       1.00
       H25          H  0.6300046  0.4353376 -0.0677388    0.00000       Uiso       1.00
       H26          H  0.5732664  0.3971981  0.5103546    0.00000       Uiso       1.00
       H27          H  0.5470051  0.4329048  0.5141432    0.00000       Uiso       1.00
       C52          C  0.9720504  0.9772996 -0.0816326    0.00000       Uiso       1.00
       C53          C  0.0135133  0.9557467 -0.0125666    0.00000       Uiso       1.00
       C54          C  0.0553105  0.9769857 -0.1374759    0.00000       Uiso       1.00
       C55          C  0.0713035  0.9554945 -0.1496553    0.00000       Uiso       1.00
       C56          C  0.0639713  0.9336950 -0.3277496    0.00000       Uiso       1.00
       C57          C  0.0796666  0.9124971 -0.3298905    0.00000       Uiso       1.00
       C58          C  0.1041145  0.9126507 -0.1652287    0.00000       Uiso       1.00
       C59          C  0.1122179  0.9344268  0.0020200    0.00000       Uiso       1.00
       C60          C  0.0959860  0.9552329  0.0141683    0.00000       Uiso       1.00
       H28          H  0.0222676  0.9393231  0.0373921    0.00000       Uiso       1.00
       H29          H  0.0469753  0.9329444 -0.4616022    0.00000       Uiso       1.00
       H30          H  0.0731217  0.8971772 -0.4569198    0.00000       Uiso       1.00
       H31          H  0.1299301  0.9352033  0.1214367    0.00000       Uiso       1.00
       H32          H  0.1024866  0.9702857  0.1489894    0.00000       Uiso       1.00
       C61          C  0.8619254  0.1477075 -0.2280647    0.00000       Uiso       1.00
       C62          C  0.8663312  0.1725682 -0.3239889    0.00000       Uiso       1.00
       C63          C  0.8469658  0.1905714 -0.2815325    0.00000       Uiso       1.00
       C64          C  0.8226341  0.1840317 -0.1425782    0.00000       Uiso       1.00
       C65          C  0.8178838  0.1593007 -0.0484418    0.00000       Uiso       1.00
       C66          C  0.8373331  0.1413818 -0.0908185    0.00000       Uiso       1.00
       C67          C  0.8047559  0.2006829 -0.0995421    0.00000       Uiso       1.00
       C68          C  0.7883484  0.2159276 -0.0580046    0.00000       Uiso       1.00
       C69          C  0.7704003  0.2324628 -0.0119284    0.00000       Uiso       1.00
       C70          C  0.7459821  0.2259438  0.1248317    0.00000       Uiso       1.00
       C71          C  0.7266743  0.2436335  0.1717369    0.00000       Uiso       1.00
       C72          C  0.7310309  0.2685686  0.0846391    0.00000       Uiso       1.00
       C73          C  0.7554694  0.2753038 -0.0514257    0.00000       Uiso       1.00
       C74          C  0.7749726  0.2574093 -0.0995187    0.00000       Uiso       1.00
       C75          C  0.7130151  0.2850799  0.1277050    0.00000       Uiso       1.00
       C76          C  0.6964428  0.3002006  0.1664093    0.00000       Uiso       1.00
       C77          C  0.6783505  0.3166791  0.2065379    0.00000       Uiso       1.00
       C78          C  0.6540465  0.3099541  0.3446508    0.00000       Uiso       1.00
       C79          C  0.6344668  0.3277802  0.3844054    0.00000       Uiso       1.00
       C80          C  0.6386291  0.3526429  0.2866128    0.00000       Uiso       1.00
       C81          C  0.6631877  0.3591483  0.1499286    0.00000       Uiso       1.00
       C82          C  0.6828461  0.3414098  0.1102182    0.00000       Uiso       1.00
        N5          N  0.7049739  0.2337199  0.3028615    0.00000       Uiso       1.00
        S2          S  0.7072954  0.2030866  0.3714871    0.00000       Uiso       1.00
        N6          N  0.7380297  0.2034556  0.2232862    0.00000       Uiso       1.00
       H33          H  0.8837917  0.1778904 -0.4255565    0.00000       Uiso       1.00
       H34          H  0.8508821  0.2083998 -0.3529807    0.00000       Uiso       1.00
       H35          H  0.8003509  0.1540613  0.0525711    0.00000       Uiso       1.00
       H36          H  0.8332509  0.1236315 -0.0191580    0.00000       Uiso       1.00
       H37          H  0.7593532  0.2932355 -0.1176910    0.00000       Uiso       1.00
       H38          H  0.7924641  0.2628438 -0.1995803    0.00000       Uiso       1.00
       H39          H  0.6503096  0.2921189  0.4175121    0.00000       Uiso       1.00
       H40          H  0.6170349  0.3223306  0.4855044    0.00000       Uiso       1.00
       H41          H  0.6670988  0.3769037  0.0768094    0.00000       Uiso       1.00
       H42          H  0.7003470  0.3467821  0.0096087    0.00000       Uiso       1.00
       C83          C  0.8818354  0.1301737 -0.2696894    0.00000       Uiso       1.00
        N7          N  0.8793430  0.1067238 -0.1543858    0.00000       Uiso       1.00
        N8          N  0.6208856  0.3934543  0.2097711    0.00000       Uiso       1.00
       C84          C  0.6185408  0.3700177  0.3261141    0.00000       Uiso       1.00
       H43          H  0.1012865  0.8645375 -0.3871759    0.00000       Uiso       1.00
       H44          H  0.3983268  0.6353634  0.4430669    0.00000       Uiso       1.00
       C85          C  0.5279465  0.4772974  0.1345226    0.00000       Uiso       1.00
       C86          C  0.4864863  0.4557422  0.0654518    0.00000       Uiso       1.00
       C87          C  0.4446965  0.4769850  0.1904637    0.00000       Uiso       1.00
       C88          C  0.4286888  0.4555036  0.2025383    0.00000       Uiso       1.00
       C89          C  0.4040044  0.4552837  0.0387553    0.00000       Uiso       1.00
       C90          C  0.3877142  0.4345239  0.0514697    0.00000       Uiso       1.00
       C91          C  0.3957599  0.4127495  0.2192215    0.00000       Uiso       1.00
       C92          C  0.4202293  0.4125318  0.3832675    0.00000       Uiso       1.00
       C93          C  0.4359877  0.4336900  0.3805760    0.00000       Uiso       1.00
       H45          H  0.4777269  0.4393201  0.0155116    0.00000       Uiso       1.00
       H46          H  0.3975379  0.4703398 -0.0962964    0.00000       Uiso       1.00
       H47          H  0.3699958  0.4353376 -0.0677388    0.00000       Uiso       1.00
       H48          H  0.4267340  0.3971981  0.5103546    0.00000       Uiso       1.00
       H49          H  0.4529953  0.4329048  0.5141432    0.00000       Uiso       1.00
       C94          C  0.0279500  0.9772996 -0.0816326    0.00000       Uiso       1.00
       C95          C  0.9864871  0.9557467 -0.0125666    0.00000       Uiso       1.00
       C96          C  0.9446900  0.9769857 -0.1374759    0.00000       Uiso       1.00
       C97          C  0.9286970  0.9554945 -0.1496553    0.00000       Uiso       1.00
       C98          C  0.9360291  0.9336950 -0.3277496    0.00000       Uiso       1.00
       C99          C  0.9203338  0.9124971 -0.3298905    0.00000       Uiso       1.00
      C100          C  0.8958859  0.9126507 -0.1652287    0.00000       Uiso       1.00
      C101          C  0.8877825  0.9344268  0.0020200    0.00000       Uiso       1.00
      C102          C  0.9040144  0.9552329  0.0141683    0.00000       Uiso       1.00
       H50          H  0.9777329  0.9393231  0.0373921    0.00000       Uiso       1.00
       H51          H  0.9530252  0.9329444 -0.4616022    0.00000       Uiso       1.00
       H52          H  0.9268787  0.8971772 -0.4569198    0.00000       Uiso       1.00
       H53          H  0.8700704  0.9352033  0.1214367    0.00000       Uiso       1.00
       H54          H  0.8975138  0.9702857  0.1489894    0.00000       Uiso       1.00
      C103          C  0.1380750  0.1477075 -0.2280647    0.00000       Uiso       1.00
      C104          C  0.1336692  0.1725682 -0.3239889    0.00000       Uiso       1.00
      C105          C  0.1530346  0.1905714 -0.2815325    0.00000       Uiso       1.00
      C106          C  0.1773663  0.1840317 -0.1425782    0.00000       Uiso       1.00
      C107          C  0.1821166  0.1593007 -0.0484418    0.00000       Uiso       1.00
      C108          C  0.1626674  0.1413818 -0.0908185    0.00000       Uiso       1.00
      C109          C  0.1952445  0.2006829 -0.0995421    0.00000       Uiso       1.00
      C110          C  0.2116520  0.2159276 -0.0580046    0.00000       Uiso       1.00
      C111          C  0.2296001  0.2324628 -0.0119284    0.00000       Uiso       1.00
      C112          C  0.2540183  0.2259438  0.1248317    0.00000       Uiso       1.00
      C113          C  0.2733262  0.2436335  0.1717369    0.00000       Uiso       1.00
      C114          C  0.2689695  0.2685686  0.0846391    0.00000       Uiso       1.00
      C115          C  0.2445310  0.2753038 -0.0514257    0.00000       Uiso       1.00
      C116          C  0.2250278  0.2574093 -0.0995187    0.00000       Uiso       1.00
      C117          C  0.2869853  0.2850799  0.1277050    0.00000       Uiso       1.00
      C118          C  0.3035575  0.3002006  0.1664093    0.00000       Uiso       1.00
      C119          C  0.3216499  0.3166791  0.2065379    0.00000       Uiso       1.00
      C120          C  0.3459539  0.3099541  0.3446508    0.00000       Uiso       1.00
      C121          C  0.3655336  0.3277802  0.3844054    0.00000       Uiso       1.00
      C122          C  0.3613712  0.3526429  0.2866128    0.00000       Uiso       1.00
      C123          C  0.3368127  0.3591483  0.1499286    0.00000       Uiso       1.00
      C124          C  0.3171543  0.3414098  0.1102182    0.00000       Uiso       1.00
        N9          N  0.2950266  0.2337199  0.3028615    0.00000       Uiso       1.00
        S3          S  0.2927050  0.2030866  0.3714871    0.00000       Uiso       1.00
       N10          N  0.2619707  0.2034556  0.2232862    0.00000       Uiso       1.00
       H55          H  0.1162087  0.1778904 -0.4255565    0.00000       Uiso       1.00
       H56          H  0.1491184  0.2083998 -0.3529807    0.00000       Uiso       1.00
       H57          H  0.1996495  0.1540613  0.0525711    0.00000       Uiso       1.00
       H58          H  0.1667496  0.1236315 -0.0191580    0.00000       Uiso       1.00
       H59          H  0.2406473  0.2932355 -0.1176910    0.00000       Uiso       1.00
       H60          H  0.2075364  0.2628438 -0.1995803    0.00000       Uiso       1.00
       H61          H  0.3496908  0.2921189  0.4175121    0.00000       Uiso       1.00
       H62          H  0.3829655  0.3223306  0.4855044    0.00000       Uiso       1.00
       H63          H  0.3329017  0.3769037  0.0768094    0.00000       Uiso       1.00
       H64          H  0.2996534  0.3467821  0.0096087    0.00000       Uiso       1.00
      C125          C  0.1181650  0.1301737 -0.2696894    0.00000       Uiso       1.00
       N11          N  0.1206574  0.1067238 -0.1543858    0.00000       Uiso       1.00
       N12          N  0.3791148  0.3934543  0.2097711    0.00000       Uiso       1.00
      C126          C  0.3814597  0.3700177  0.3261141    0.00000       Uiso       1.00
       H65          H  0.8987140  0.8645375 -0.3871759    0.00000       Uiso       1.00
       H66          H  0.6016735  0.6353634  0.4430669    0.00000       Uiso       1.00
      C127          C  0.4720539  0.5227023  0.1345226    0.00000       Uiso       1.00
      C128          C  0.5135141  0.5442575  0.0654518    0.00000       Uiso       1.00
      C129          C  0.5553039  0.5230147  0.1904637    0.00000       Uiso       1.00
      C130          C  0.5713117  0.5444961  0.2025383    0.00000       Uiso       1.00
      C131          C  0.5959960  0.5447161  0.0387553    0.00000       Uiso       1.00
      C132          C  0.6122862  0.5654758  0.0514697    0.00000       Uiso       1.00
      C133          C  0.6042405  0.5872502  0.2192215    0.00000       Uiso       1.00
      C134          C  0.5797712  0.5874679  0.3832675    0.00000       Uiso       1.00
      C135          C  0.5640128  0.5663097  0.3805760    0.00000       Uiso       1.00
       H67          H  0.5222735  0.5606796  0.0155116    0.00000       Uiso       1.00
       H68          H  0.6024625  0.5296599 -0.0962964    0.00000       Uiso       1.00
       H69          H  0.6300046  0.5646621 -0.0677388    0.00000       Uiso       1.00
       H70          H  0.5732664  0.6028016  0.5103546    0.00000       Uiso       1.00
       H71          H  0.5470051  0.5670949  0.5141432    0.00000       Uiso       1.00
      C136          C  0.9720504  0.0227001 -0.0816326    0.00000       Uiso       1.00
      C137          C  0.0135133  0.0442530 -0.0125666    0.00000       Uiso       1.00
      C138          C  0.0553105  0.0230140 -0.1374759    0.00000       Uiso       1.00
      C139          C  0.0713035  0.0445052 -0.1496553    0.00000       Uiso       1.00
      C140          C  0.0639713  0.0663047 -0.3277496    0.00000       Uiso       1.00
      C141          C  0.0796666  0.0875026 -0.3298905    0.00000       Uiso       1.00
      C142          C  0.1041145  0.0873490 -0.1652287    0.00000       Uiso       1.00
      C143          C  0.1122179  0.0655729  0.0020200    0.00000       Uiso       1.00
      C144          C  0.0959860  0.0447669  0.0141683    0.00000       Uiso       1.00
       H72          H  0.0222676  0.0606765  0.0373921    0.00000       Uiso       1.00
       H73          H  0.0469753  0.0670554 -0.4616022    0.00000       Uiso       1.00
       H74          H  0.0731217  0.1028225 -0.4569198    0.00000       Uiso       1.00
       H75          H  0.1299301  0.0647964  0.1214367    0.00000       Uiso       1.00
       H76          H  0.1024866  0.0297140  0.1489894    0.00000       Uiso       1.00
      C145          C  0.8619254  0.8522922 -0.2280647    0.00000       Uiso       1.00
      C146          C  0.8663312  0.8274315 -0.3239889    0.00000       Uiso       1.00
      C147          C  0.8469658  0.8094283 -0.2815325    0.00000       Uiso       1.00
      C148          C  0.8226341  0.8159680 -0.1425782    0.00000       Uiso       1.00
      C149          C  0.8178838  0.8406989 -0.0484418    0.00000       Uiso       1.00
      C150          C  0.8373331  0.8586179 -0.0908185    0.00000       Uiso       1.00
      C151          C  0.8047559  0.7993168 -0.0995421    0.00000       Uiso       1.00
      C152          C  0.7883484  0.7840722 -0.0580046    0.00000       Uiso       1.00
      C153          C  0.7704003  0.7675369 -0.0119284    0.00000       Uiso       1.00
      C154          C  0.7459821  0.7740558  0.1248317    0.00000       Uiso       1.00
      C155          C  0.7266743  0.7563663  0.1717369    0.00000       Uiso       1.00
      C156          C  0.7310309  0.7314311  0.0846391    0.00000       Uiso       1.00
      C157          C  0.7554694  0.7246959 -0.0514257    0.00000       Uiso       1.00
      C158          C  0.7749726  0.7425904 -0.0995187    0.00000       Uiso       1.00
      C159          C  0.7130151  0.7149197  0.1277050    0.00000       Uiso       1.00
      C160          C  0.6964428  0.6997991  0.1664093    0.00000       Uiso       1.00
      C161          C  0.6783505  0.6833205  0.2065379    0.00000       Uiso       1.00
      C162          C  0.6540465  0.6900456  0.3446508    0.00000       Uiso       1.00
      C163          C  0.6344668  0.6722195  0.3844054    0.00000       Uiso       1.00
      C164          C  0.6386291  0.6473568  0.2866128    0.00000       Uiso       1.00
      C165          C  0.6631877  0.6408514  0.1499286    0.00000       Uiso       1.00
      C166          C  0.6828461  0.6585899  0.1102182    0.00000       Uiso       1.00
       N13          N  0.7049739  0.7662798  0.3028615    0.00000       Uiso       1.00
        S4          S  0.7072954  0.7969131  0.3714871    0.00000       Uiso       1.00
       N14          N  0.7380297  0.7965441  0.2232862    0.00000       Uiso       1.00
       H77          H  0.8837917  0.8221093 -0.4255565    0.00000       Uiso       1.00
       H78          H  0.8508821  0.7915999 -0.3529807    0.00000       Uiso       1.00
       H79          H  0.8003509  0.8459383  0.0525711    0.00000       Uiso       1.00
       H80          H  0.8332509  0.8763682 -0.0191580    0.00000       Uiso       1.00
       H81          H  0.7593532  0.7067642 -0.1176910    0.00000       Uiso       1.00
       H82          H  0.7924641  0.7371559 -0.1995803    0.00000       Uiso       1.00
       H83          H  0.6503096  0.7078808  0.4175121    0.00000       Uiso       1.00
       H84          H  0.6170349  0.6776691  0.4855044    0.00000       Uiso       1.00
       H85          H  0.6670988  0.6230959  0.0768094    0.00000       Uiso       1.00
       H86          H  0.7003470  0.6532176  0.0096087    0.00000       Uiso       1.00
      C167          C  0.8818354  0.8698260 -0.2696894    0.00000       Uiso       1.00
       N15          N  0.8793430  0.8932759 -0.1543858    0.00000       Uiso       1.00
       N16          N  0.6208856  0.6065454  0.2097711    0.00000       Uiso       1.00
      C168          C  0.6185408  0.6299820  0.3261141    0.00000       Uiso       1.00
       H87          H  0.1012865  0.1354622 -0.3871759    0.00000       Uiso       1.00
       H88          H  0.3983268  0.3646363  0.4430669    0.00000       Uiso       1.00
      C169          C  0.4323891  0.4999999  0.2408698    0.00000       Uiso       1.00
      C170          C  0.5139266  0.4999999  0.1378692    0.00000       Uiso       1.00
       H89          H  0.4133147  0.4999999  0.3148938    0.00000       Uiso       1.00
      C171          C  0.5676113  0.4999999  0.2408698    0.00000       Uiso       1.00
      C172          C  0.4860738  0.4999999  0.1378692    0.00000       Uiso       1.00
       H90          H  0.5866857  0.4999999  0.3148938    0.00000       Uiso       1.00
      C173          C  0.9323747  0.0000000 -0.1876262    0.00000       Uiso       1.00
      C174          C  0.0139276  0.0000000 -0.0850043    0.00000       Uiso       1.00
       H91          H  0.9132937  0.0000000 -0.2613285    0.00000       Uiso       1.00
      C175          C  0.0676257  0.0000000 -0.1876262    0.00000       Uiso       1.00
      C176          C  0.9860728  0.0000000 -0.0850043    0.00000       Uiso       1.00
       H92          H  0.0867067  0.0000000 -0.2613285    0.00000       Uiso       1.00
