data_crystal
 
_cell_length_a    39.39320
_cell_length_b    39.39320
_cell_length_c    7.40040
_cell_angle_alpha 90.00000
_cell_angle_beta  90.00000
_cell_angle_gamma 120.00000
 
_symmetry_space_group_name_Hall 'P 1'
_symmetry_space_group_name_H-M  'P 1'
 
loop_
_symmetry_equiv_pos_as_xyz
 'x,y,z' 
 
loop_
_atom_site_label
_atom_site_type_symbol
_atom_site_fract_x
_atom_site_fract_y
_atom_site_fract_z
_atom_site_charge
C          C       0.55644   0.58951   0.29126   0.0000000000
C          C       0.41049   0.96693   0.29126   0.0000000000
C          C       0.03307   0.44356   0.29126   0.0000000000
C          C       0.44356   0.41049   0.20874   0.0000000000
C          C       0.58951   0.03307   0.20874   0.0000000000
C          C       0.96693   0.55644   0.20874   0.0000000000
C          C       0.52020   0.55351   0.30347   0.0000000000
C          C       0.44649   0.96669   0.30347   0.0000000000
C          C       0.03331   0.47980   0.30347   0.0000000000
C          C       0.47980   0.44649   0.19653   0.0000000000
C          C       0.55351   0.03331   0.19653   0.0000000000
C          C       0.96669   0.52020   0.19653   0.0000000000
C          C       0.51813   0.51798   0.24725   0.0000000000
C          C       0.48202   0.00015   0.24725   0.0000000000
C          C       0.99985   0.48187   0.24725   0.0000000000
C          C       0.48187   0.48202   0.25275   0.0000000000
C          C       0.51798   0.99985   0.25275   0.0000000000
C          C       0.00015   0.51813   0.25275   0.0000000000
C          C       0.55234   0.51820   0.18754   0.0000000000
C          C       0.48180   0.03414   0.18754   0.0000000000
C          C       0.96586   0.44766   0.18754   0.0000000000
C          C       0.44766   0.48180   0.31246   0.0000000000
C          C       0.51820   0.96586   0.31246   0.0000000000
C          C       0.03414   0.55234   0.31246   0.0000000000
C          C       0.58854   0.55342   0.19060   0.0000000000
C          C       0.44658   0.03512   0.19060   0.0000000000
C          C       0.96488   0.41146   0.19060   0.0000000000
C          C       0.41146   0.44658   0.30940   0.0000000000
C          C       0.55342   0.96488   0.30940   0.0000000000
C          C       0.03512   0.58854   0.30940   0.0000000000
C          C       0.59012   0.58839   0.23825   0.0000000000
C          C       0.41161   0.00173   0.23825   0.0000000000
C          C       0.99827   0.40988   0.23825   0.0000000000
C          C       0.40988   0.41161   0.26175   0.0000000000
C          C       0.58839   0.99827   0.26175   0.0000000000
C          C       0.00173   0.59012   0.26175   0.0000000000
C          C       0.51384   0.44836   0.12593   0.0000000000
C          C       0.55164   0.06548   0.12593   0.0000000000
C          C       0.93452   0.48616   0.12593   0.0000000000
C          C       0.48616   0.55164   0.37406   0.0000000000
C          C       0.44836   0.93452   0.37406   0.0000000000
C          C       0.06548   0.51384   0.37406   0.0000000000
C          C       0.54949   0.48322   0.12526   0.0000000000
C          C       0.51678   0.06627   0.12526   0.0000000000
C          C       0.93373   0.45051   0.12526   0.0000000000
C          C       0.45051   0.51678   0.37474   0.0000000000
C          C       0.48322   0.93373   0.37474   0.0000000000
C          C       0.06627   0.54949   0.37474   0.0000000000
C          C       0.56063   0.62889   0.32727   0.0000000000
C          C       0.37111   0.93174   0.32727   0.0000000000
C          C       0.06826   0.43937   0.32727   0.0000000000
C          C       0.43937   0.37111   0.17272   0.0000000000
C          C       0.62889   0.06826   0.17272   0.0000000000
C          C       0.93174   0.56063   0.17272   0.0000000000
C          C       0.62503   0.55419   0.15767   0.0000000000
C          C       0.44581   0.07084   0.15767   0.0000000000
C          C       0.92916   0.37497   0.15767   0.0000000000
C          C       0.37497   0.44581   0.34233   0.0000000000
C          C       0.55419   0.92916   0.34233   0.0000000000
C          C       0.07084   0.62503   0.34233   0.0000000000
C          C       0.59407   0.65827   0.41647   0.0000000000
C          C       0.34173   0.93580   0.41647   0.0000000000
C          C       0.06420   0.40593   0.41647   0.0000000000
C          C       0.40593   0.34173   0.08353   0.0000000000
C          C       0.65827   0.06420   0.08353   0.0000000000
C          C       0.93580   0.59407   0.08353   0.0000000000
C          C       0.59939   0.69580   0.44099   0.0000000000
C          C       0.30420   0.90359   0.44099   0.0000000000
C          C       0.09641   0.40061   0.44099   0.0000000000
C          C       0.40061   0.30420   0.05902   0.0000000000
C          C       0.69580   0.09641   0.05902   0.0000000000
C          C       0.90359   0.59939   0.05902   0.0000000000
C          C       0.57121   0.70481   0.37914   0.0000000000
C          C       0.29519   0.86640   0.37914   0.0000000000
C          C       0.13360   0.42879   0.37914   0.0000000000
C          C       0.42879   0.29519   0.12086   0.0000000000
C          C       0.70481   0.13360   0.12086   0.0000000000
C          C       0.86640   0.57121   0.12086   0.0000000000
C          C       0.53789   0.67580   0.28920   0.0000000000
C          C       0.32420   0.86209   0.28920   0.0000000000
C          C       0.13791   0.46211   0.28920   0.0000000000
C          C       0.46211   0.32420   0.21080   0.0000000000
C          C       0.67580   0.13791   0.21080   0.0000000000
C          C       0.86209   0.53789   0.21080   0.0000000000
C          C       0.53319   0.63867   0.25992   0.0000000000
C          C       0.36133   0.89452   0.25992   0.0000000000
C          C       0.10548   0.46681   0.25992   0.0000000000
C          C       0.46681   0.36133   0.24008   0.0000000000
C          C       0.63867   0.10548   0.24008   0.0000000000
C          C       0.89452   0.53319   0.24008   0.0000000000
C          C       0.65537   0.55412   0.13889   0.0000000000
C          C       0.44588   0.10125   0.13889   0.0000000000
C          C       0.89875   0.34463   0.13889   0.0000000000
C          C       0.34463   0.44588   0.36112   0.0000000000
C          C       0.55412   0.89875   0.36112   0.0000000000
C          C       0.10125   0.65537   0.36112   0.0000000000
C          C       0.69130   0.55321   0.12610   0.0000000000
C          C       0.44679   0.13809   0.12610   0.0000000000
C          C       0.86191   0.30870   0.12610   0.0000000000
C          C       0.30870   0.44679   0.37390   0.0000000000
C          C       0.55321   0.86191   0.37390   0.0000000000
C          C       0.13809   0.69130   0.37390   0.0000000000
C          C       0.30829   0.48095   0.32672   0.0000000000
C          C       0.51905   0.82734   0.32672   0.0000000000
C          C       0.17266   0.69171   0.32672   0.0000000000
C          C       0.69171   0.51905   0.17328   0.0000000000
C          C       0.48095   0.17266   0.17328   0.0000000000
C          C       0.82734   0.30829   0.17328   0.0000000000
C          C       0.27302   0.48128   0.32515   0.0000000000
C          C       0.51872   0.79174   0.32515   0.0000000000
C          C       0.20826   0.72698   0.32515   0.0000000000
C          C       0.72698   0.51872   0.17486   0.0000000000
C          C       0.48128   0.20826   0.17486   0.0000000000
C          C       0.79174   0.27302   0.17486   0.0000000000
C          C       0.23775   0.44761   0.37088   0.0000000000
C          C       0.55239   0.79014   0.37088   0.0000000000
C          C       0.20986   0.76225   0.37088   0.0000000000
C          C       0.76225   0.55239   0.12912   0.0000000000
C          C       0.44761   0.20986   0.12912   0.0000000000
C          C       0.79014   0.23775   0.12912   0.0000000000
C          C       0.23836   0.41334   0.42049   0.0000000000
C          C       0.58666   0.82502   0.42049   0.0000000000
C          C       0.17498   0.76164   0.42049   0.0000000000
C          C       0.76164   0.58666   0.07951   0.0000000000
C          C       0.41334   0.17498   0.07951   0.0000000000
C          C       0.82502   0.23836   0.07951   0.0000000000
C          C       0.27375   0.41307   0.42193   0.0000000000
C          C       0.58693   0.86068   0.42193   0.0000000000
C          C       0.13932   0.72625   0.42193   0.0000000000
C          C       0.72625   0.58693   0.07807   0.0000000000
C          C       0.41307   0.13932   0.07807   0.0000000000
C          C       0.86068   0.27375   0.07807   0.0000000000
N          N       0.44930   0.24706   0.14330   0.0000000000
N          N       0.75294   0.20224   0.14330   0.0000000000
N          N       0.79776   0.55070   0.14330   0.0000000000
N          N       0.55070   0.75294   0.35671   0.0000000000
N          N       0.24706   0.79776   0.35671   0.0000000000
N          N       0.20224   0.44930   0.35671   0.0000000000
C          C       0.42286   0.25551   0.09172   0.0000000000
C          C       0.74449   0.16735   0.09172   0.0000000000
C          C       0.83265   0.57714   0.09172   0.0000000000
C          C       0.57714   0.74449   0.40828   0.0000000000
C          C       0.25551   0.83265   0.40828   0.0000000000
C          C       0.16735   0.42286   0.40828   0.0000000000
H          H       0.61821   0.61520   0.23205   0.0000000000
H          H       0.38480   0.00301   0.23205   0.0000000000
H          H       0.99699   0.38179   0.23205   0.0000000000
H          H       0.38179   0.38480   0.26795   0.0000000000
H          H       0.61520   0.99699   0.26795   0.0000000000
H          H       0.00301   0.61821   0.26795   0.0000000000
H          H       0.51347   0.42315   0.06750   0.0000000000
H          H       0.57685   0.09032   0.06750   0.0000000000
H          H       0.90968   0.48653   0.06750   0.0000000000
H          H       0.48653   0.57685   0.43250   0.0000000000
H          H       0.42315   0.90968   0.43250   0.0000000000
H          H       0.09032   0.51347   0.43250   0.0000000000
H          H       0.57477   0.48265   0.07161   0.0000000000
H          H       0.51735   0.09212   0.07161   0.0000000000
H          H       0.90788   0.42523   0.07161   0.0000000000
H          H       0.42523   0.51735   0.42840   0.0000000000
H          H       0.48265   0.90788   0.42840   0.0000000000
H          H       0.09212   0.57477   0.42840   0.0000000000
H          H       0.61615   0.65226   0.46882   0.0000000000
H          H       0.34774   0.96389   0.46882   0.0000000000
H          H       0.03611   0.38385   0.46882   0.0000000000
H          H       0.38385   0.34774   0.03118   0.0000000000
H          H       0.65226   0.03611   0.03118   0.0000000000
H          H       0.96389   0.61615   0.03118   0.0000000000
H          H       0.62534   0.71768   0.01071   0.0000000000
H          H       0.28232   0.90766   0.01071   0.0000000000
H          H       0.09234   0.37466   0.01071   0.0000000000
H          H       0.37466   0.28232   0.48929   0.0000000000
H          H       0.71768   0.09234   0.48929   0.0000000000
H          H       0.90766   0.62534   0.48929   0.0000000000
H          H       0.51594   0.68205   0.23676   0.0000000000
H          H       0.31795   0.83389   0.23676   0.0000000000
H          H       0.16611   0.48406   0.23676   0.0000000000
H          H       0.48406   0.31795   0.26324   0.0000000000
H          H       0.68205   0.16611   0.26324   0.0000000000
H          H       0.83389   0.51594   0.26324   0.0000000000
H          H       0.50829   0.61787   0.18166   0.0000000000
H          H       0.38213   0.89042   0.18166   0.0000000000
H          H       0.10958   0.49171   0.18166   0.0000000000
H          H       0.49171   0.38213   0.31834   0.0000000000
H          H       0.61787   0.10958   0.31834   0.0000000000
H          H       0.89042   0.50829   0.31834   0.0000000000
H          H       0.33512   0.50710   0.28742   0.0000000000
H          H       0.49290   0.82802   0.28742   0.0000000000
H          H       0.17198   0.66488   0.28742   0.0000000000
H          H       0.66488   0.49290   0.21258   0.0000000000
H          H       0.50710   0.17198   0.21258   0.0000000000
H          H       0.82802   0.33512   0.21258   0.0000000000
H          H       0.27301   0.50771   0.28517   0.0000000000
H          H       0.49229   0.76530   0.28517   0.0000000000
H          H       0.23470   0.72699   0.28517   0.0000000000
H          H       0.72699   0.49229   0.21483   0.0000000000
H          H       0.50771   0.23470   0.21483   0.0000000000
H          H       0.76530   0.27301   0.21483   0.0000000000
H          H       0.21188   0.38651   0.45433   0.0000000000
H          H       0.61349   0.82537   0.45433   0.0000000000
H          H       0.17463   0.78812   0.45433   0.0000000000
H          H       0.78812   0.61349   0.04567   0.0000000000
H          H       0.38651   0.17463   0.04567   0.0000000000
H          H       0.82537   0.21188   0.04567   0.0000000000
H          H       0.27374   0.38638   0.45728   0.0000000000
H          H       0.61362   0.88736   0.45728   0.0000000000
H          H       0.11264   0.72626   0.45728   0.0000000000
H          H       0.72626   0.61362   0.04272   0.0000000000
H          H       0.38638   0.11264   0.04272   0.0000000000
H          H       0.88736   0.27374   0.04272   0.0000000000
H          H       0.39632   0.23397   0.02533   0.0000000000
H          H       0.76603   0.16235   0.02533   0.0000000000
H          H       0.83765   0.60368   0.02533   0.0000000000
H          H       0.60368   0.76603   0.47468   0.0000000000
H          H       0.23397   0.83765   0.47468   0.0000000000
H          H       0.16235   0.39632   0.47468   0.0000000000
C          C       0.55644   0.58951   0.79126   0.0000000000
C          C       0.41049   0.96693   0.79126   0.0000000000
C          C       0.03307   0.44356   0.79126   0.0000000000
C          C       0.44356   0.41049   0.70874   0.0000000000
C          C       0.58951   0.03307   0.70874   0.0000000000
C          C       0.96693   0.55644   0.70874   0.0000000000
C          C       0.52020   0.55351   0.80347   0.0000000000
C          C       0.44649   0.96669   0.80347   0.0000000000
C          C       0.03331   0.47980   0.80347   0.0000000000
C          C       0.47980   0.44649   0.69653   0.0000000000
C          C       0.55351   0.03331   0.69653   0.0000000000
C          C       0.96669   0.52020   0.69653   0.0000000000
C          C       0.51813   0.51798   0.74725   0.0000000000
C          C       0.48202   0.00015   0.74725   0.0000000000
C          C       0.99985   0.48187   0.74725   0.0000000000
C          C       0.48187   0.48202   0.75275   0.0000000000
C          C       0.51798   0.99985   0.75275   0.0000000000
C          C       0.00015   0.51813   0.75275   0.0000000000
C          C       0.55234   0.51820   0.68754   0.0000000000
C          C       0.48180   0.03414   0.68754   0.0000000000
C          C       0.96586   0.44766   0.68754   0.0000000000
C          C       0.44766   0.48180   0.81246   0.0000000000
C          C       0.51820   0.96586   0.81246   0.0000000000
C          C       0.03414   0.55234   0.81246   0.0000000000
C          C       0.58854   0.55342   0.69060   0.0000000000
C          C       0.44658   0.03512   0.69060   0.0000000000
C          C       0.96488   0.41146   0.69060   0.0000000000
C          C       0.41146   0.44658   0.80940   0.0000000000
C          C       0.55342   0.96488   0.80940   0.0000000000
C          C       0.03512   0.58854   0.80940   0.0000000000
C          C       0.59012   0.58839   0.73825   0.0000000000
C          C       0.41161   0.00173   0.73825   0.0000000000
C          C       0.99827   0.40988   0.73825   0.0000000000
C          C       0.40988   0.41161   0.76175   0.0000000000
C          C       0.58839   0.99827   0.76175   0.0000000000
C          C       0.00173   0.59012   0.76175   0.0000000000
C          C       0.51384   0.44836   0.62594   0.0000000000
C          C       0.55164   0.06548   0.62594   0.0000000000
C          C       0.93452   0.48616   0.62594   0.0000000000
C          C       0.48616   0.55164   0.87406   0.0000000000
C          C       0.44836   0.93452   0.87406   0.0000000000
C          C       0.06548   0.51384   0.87406   0.0000000000
C          C       0.54949   0.48322   0.62526   0.0000000000
C          C       0.51678   0.06627   0.62526   0.0000000000
C          C       0.93373   0.45051   0.62526   0.0000000000
C          C       0.45051   0.51678   0.87474   0.0000000000
C          C       0.48322   0.93373   0.87474   0.0000000000
C          C       0.06627   0.54949   0.87474   0.0000000000
C          C       0.56063   0.62889   0.82727   0.0000000000
C          C       0.37111   0.93174   0.82727   0.0000000000
C          C       0.06826   0.43937   0.82727   0.0000000000
C          C       0.43937   0.37111   0.67273   0.0000000000
C          C       0.62889   0.06826   0.67273   0.0000000000
C          C       0.93174   0.56063   0.67273   0.0000000000
C          C       0.62503   0.55419   0.65767   0.0000000000
C          C       0.44581   0.07084   0.65767   0.0000000000
C          C       0.92916   0.37497   0.65767   0.0000000000
C          C       0.37497   0.44581   0.84233   0.0000000000
C          C       0.55419   0.92916   0.84233   0.0000000000
C          C       0.07084   0.62503   0.84233   0.0000000000
C          C       0.59407   0.65827   0.91647   0.0000000000
C          C       0.34173   0.93580   0.91647   0.0000000000
C          C       0.06420   0.40593   0.91647   0.0000000000
C          C       0.40593   0.34173   0.58353   0.0000000000
C          C       0.65827   0.06420   0.58353   0.0000000000
C          C       0.93580   0.59407   0.58353   0.0000000000
C          C       0.59939   0.69580   0.94099   0.0000000000
C          C       0.30420   0.90359   0.94099   0.0000000000
C          C       0.09641   0.40061   0.94099   0.0000000000
C          C       0.40061   0.30420   0.55902   0.0000000000
C          C       0.69580   0.09641   0.55902   0.0000000000
C          C       0.90359   0.59939   0.55902   0.0000000000
C          C       0.57121   0.70481   0.87914   0.0000000000
C          C       0.29519   0.86640   0.87914   0.0000000000
C          C       0.13360   0.42879   0.87914   0.0000000000
C          C       0.42879   0.29519   0.62086   0.0000000000
C          C       0.70481   0.13360   0.62086   0.0000000000
C          C       0.86640   0.57121   0.62086   0.0000000000
C          C       0.53789   0.67580   0.78919   0.0000000000
C          C       0.32420   0.86209   0.78919   0.0000000000
C          C       0.13791   0.46211   0.78919   0.0000000000
C          C       0.46211   0.32420   0.71081   0.0000000000
C          C       0.67580   0.13791   0.71081   0.0000000000
C          C       0.86209   0.53789   0.71081   0.0000000000
C          C       0.53319   0.63867   0.75992   0.0000000000
C          C       0.36133   0.89452   0.75992   0.0000000000
C          C       0.10548   0.46681   0.75992   0.0000000000
C          C       0.46681   0.36133   0.74009   0.0000000000
C          C       0.63867   0.10548   0.74009   0.0000000000
C          C       0.89452   0.53319   0.74009   0.0000000000
C          C       0.65537   0.55412   0.63889   0.0000000000
C          C       0.44588   0.10125   0.63889   0.0000000000
C          C       0.89875   0.34463   0.63889   0.0000000000
C          C       0.34463   0.44588   0.86111   0.0000000000
C          C       0.55412   0.89875   0.86111   0.0000000000
C          C       0.10125   0.65537   0.86111   0.0000000000
C          C       0.69130   0.55321   0.62610   0.0000000000
C          C       0.44679   0.13809   0.62610   0.0000000000
C          C       0.86191   0.30870   0.62610   0.0000000000
C          C       0.30870   0.44679   0.87390   0.0000000000
C          C       0.55321   0.86191   0.87390   0.0000000000
C          C       0.13809   0.69130   0.87390   0.0000000000
C          C       0.30829   0.48095   0.82673   0.0000000000
C          C       0.51905   0.82734   0.82673   0.0000000000
C          C       0.17266   0.69171   0.82673   0.0000000000
C          C       0.69171   0.51905   0.67328   0.0000000000
C          C       0.48095   0.17266   0.67328   0.0000000000
C          C       0.82734   0.30829   0.67328   0.0000000000
C          C       0.27302   0.48128   0.82515   0.0000000000
C          C       0.51872   0.79174   0.82515   0.0000000000
C          C       0.20826   0.72698   0.82515   0.0000000000
C          C       0.72698   0.51872   0.67485   0.0000000000
C          C       0.48128   0.20826   0.67485   0.0000000000
C          C       0.79174   0.27302   0.67485   0.0000000000
C          C       0.23775   0.44761   0.87088   0.0000000000
C          C       0.55239   0.79014   0.87088   0.0000000000
C          C       0.20986   0.76225   0.87088   0.0000000000
C          C       0.76225   0.55239   0.62912   0.0000000000
C          C       0.44761   0.20986   0.62912   0.0000000000
C          C       0.79014   0.23775   0.62912   0.0000000000
C          C       0.23836   0.41334   0.92049   0.0000000000
C          C       0.58666   0.82502   0.92049   0.0000000000
C          C       0.17498   0.76164   0.92049   0.0000000000
C          C       0.76164   0.58666   0.57951   0.0000000000
C          C       0.41334   0.17498   0.57951   0.0000000000
C          C       0.82502   0.23836   0.57951   0.0000000000
C          C       0.27375   0.41307   0.92193   0.0000000000
C          C       0.58693   0.86068   0.92193   0.0000000000
C          C       0.13932   0.72625   0.92193   0.0000000000
C          C       0.72625   0.58693   0.57807   0.0000000000
C          C       0.41307   0.13932   0.57807   0.0000000000
C          C       0.86068   0.27375   0.57807   0.0000000000
N          N       0.44930   0.24706   0.64329   0.0000000000
N          N       0.75294   0.20224   0.64329   0.0000000000
N          N       0.79776   0.55070   0.64329   0.0000000000
N          N       0.55070   0.75294   0.85670   0.0000000000
N          N       0.24706   0.79776   0.85670   0.0000000000
N          N       0.20224   0.44930   0.85670   0.0000000000
C          C       0.42286   0.25551   0.59172   0.0000000000
C          C       0.74449   0.16735   0.59172   0.0000000000
C          C       0.83265   0.57714   0.59172   0.0000000000
C          C       0.57714   0.74449   0.90828   0.0000000000
C          C       0.25551   0.83265   0.90828   0.0000000000
C          C       0.16735   0.42286   0.90828   0.0000000000
H          H       0.61821   0.61520   0.73205   0.0000000000
H          H       0.38480   0.00301   0.73205   0.0000000000
H          H       0.99699   0.38179   0.73205   0.0000000000
H          H       0.38179   0.38480   0.76795   0.0000000000
H          H       0.61520   0.99699   0.76795   0.0000000000
H          H       0.00301   0.61821   0.76795   0.0000000000
H          H       0.51347   0.42315   0.56751   0.0000000000
H          H       0.57685   0.09032   0.56751   0.0000000000
H          H       0.90968   0.48653   0.56751   0.0000000000
H          H       0.48653   0.57685   0.93249   0.0000000000
H          H       0.42315   0.90968   0.93249   0.0000000000
H          H       0.09032   0.51347   0.93249   0.0000000000
H          H       0.57477   0.48265   0.57160   0.0000000000
H          H       0.51735   0.09212   0.57160   0.0000000000
H          H       0.90788   0.42523   0.57160   0.0000000000
H          H       0.42523   0.51735   0.92839   0.0000000000
H          H       0.48265   0.90788   0.92839   0.0000000000
H          H       0.09212   0.57477   0.92839   0.0000000000
H          H       0.61615   0.65226   0.96882   0.0000000000
H          H       0.34774   0.96389   0.96882   0.0000000000
H          H       0.03611   0.38385   0.96882   0.0000000000
H          H       0.38385   0.34774   0.53118   0.0000000000
H          H       0.65226   0.03611   0.53118   0.0000000000
H          H       0.96389   0.61615   0.53118   0.0000000000
H          H       0.62534   0.71768   0.51071   0.0000000000
H          H       0.28232   0.90766   0.51071   0.0000000000
H          H       0.09234   0.37466   0.51071   0.0000000000
H          H       0.37466   0.28232   0.98929   0.0000000000
H          H       0.71768   0.09234   0.98929   0.0000000000
H          H       0.90766   0.62534   0.98929   0.0000000000
H          H       0.51594   0.68205   0.73676   0.0000000000
H          H       0.31795   0.83389   0.73676   0.0000000000
H          H       0.16611   0.48406   0.73676   0.0000000000
H          H       0.48406   0.31795   0.76324   0.0000000000
H          H       0.68205   0.16611   0.76324   0.0000000000
H          H       0.83389   0.51594   0.76324   0.0000000000
H          H       0.50829   0.61787   0.68166   0.0000000000
H          H       0.38213   0.89042   0.68166   0.0000000000
H          H       0.10958   0.49171   0.68166   0.0000000000
H          H       0.49171   0.38213   0.81834   0.0000000000
H          H       0.61787   0.10958   0.81834   0.0000000000
H          H       0.89042   0.50829   0.81834   0.0000000000
H          H       0.33512   0.50710   0.78742   0.0000000000
H          H       0.49290   0.82802   0.78742   0.0000000000
H          H       0.17198   0.66488   0.78742   0.0000000000
H          H       0.66488   0.49290   0.71258   0.0000000000
H          H       0.50710   0.17198   0.71258   0.0000000000
H          H       0.82802   0.33512   0.71258   0.0000000000
H          H       0.27301   0.50771   0.78517   0.0000000000
H          H       0.49229   0.76530   0.78517   0.0000000000
H          H       0.23470   0.72699   0.78517   0.0000000000
H          H       0.72699   0.49229   0.71483   0.0000000000
H          H       0.50771   0.23470   0.71483   0.0000000000
H          H       0.76530   0.27301   0.71483   0.0000000000
H          H       0.21188   0.38651   0.95434   0.0000000000
H          H       0.61349   0.82537   0.95434   0.0000000000
H          H       0.17463   0.78812   0.95434   0.0000000000
H          H       0.78812   0.61349   0.54566   0.0000000000
H          H       0.38651   0.17463   0.54566   0.0000000000
H          H       0.82537   0.21188   0.54566   0.0000000000
H          H       0.27374   0.38638   0.95728   0.0000000000
H          H       0.61362   0.88736   0.95728   0.0000000000
H          H       0.11264   0.72626   0.95728   0.0000000000
H          H       0.72626   0.61362   0.54272   0.0000000000
H          H       0.38638   0.11264   0.54272   0.0000000000
H          H       0.88736   0.27374   0.54272   0.0000000000
H          H       0.39632   0.23397   0.52533   0.0000000000
H          H       0.76603   0.16235   0.52533   0.0000000000
H          H       0.83765   0.60368   0.52533   0.0000000000
H          H       0.60368   0.76603   0.97468   0.0000000000
H          H       0.23397   0.83765   0.97468   0.0000000000
H          H       0.16235   0.39632   0.97468   0.0000000000
