data_crystal
 
_cell_length_a    28.10140
_cell_length_b    29.34250
_cell_length_c    7.77160
_cell_angle_alpha 90.00000
_cell_angle_beta  105.82100
_cell_angle_gamma 90.00000
 
_symmetry_space_group_name_Hall 'P 1'
_symmetry_space_group_name_H-M  'P 1'
 
loop_
_symmetry_equiv_pos_as_xyz
 'x,y,z' 
 
loop_
_atom_site_label
_atom_site_type_symbol
_atom_site_fract_x
_atom_site_fract_y
_atom_site_fract_z
_atom_site_charge
C          C       0.47096   0.59964   0.28963   0.0000000000
C          C       0.46531   0.55185   0.28691   0.0000000000
C          C       0.57677   0.46880   0.18234   0.0000000000
C          C       0.43306   0.62973   0.31510   0.0000000000
C          C       0.40082   0.65494   0.33089   0.0000000000
C          C       0.36170   0.68521   0.34136   0.0000000000
C          C       0.36391   0.73103   0.29605   0.0000000000
C          C       0.32393   0.75988   0.28971   0.0000000000
C          C       0.28099   0.74281   0.32671   0.0000000000
C          C       0.28000   0.69736   0.37922   0.0000000000
C          C       0.32003   0.66846   0.38542   0.0000000000
N          N       0.23771   0.77022   0.31115   0.0000000000
C          C       0.22746   0.80776   0.22143   0.0000000000
C          C       0.95248   0.09104   0.32087   0.0000000000
C          C       0.95365   0.04408   0.27559   0.0000000000
C          C       0.08944   0.98270   0.27364   0.0000000000
C          C       0.90608   0.11718   0.31173   0.0000000000
C          C       0.89908   0.16060   0.23267   0.0000000000
C          C       0.85581   0.18536   0.22166   0.0000000000
C          C       0.81845   0.16702   0.28799   0.0000000000
C          C       0.82560   0.12428   0.36946   0.0000000000
C          C       0.86942   0.10031   0.38489   0.0000000000
C          C       0.52903   0.40036   0.21032   0.0000000000
C          C       0.53468   0.44815   0.21304   0.0000000000
C          C       0.42322   0.53120   0.31761   0.0000000000
C          C       0.56693   0.37026   0.18485   0.0000000000
C          C       0.59917   0.34505   0.16905   0.0000000000
C          C       0.63830   0.31480   0.15856   0.0000000000
C          C       0.63607   0.26896   0.20374   0.0000000000
C          C       0.67605   0.24012   0.21008   0.0000000000
C          C       0.71901   0.25719   0.17322   0.0000000000
C          C       0.72001   0.30265   0.12084   0.0000000000
C          C       0.67998   0.33156   0.11464   0.0000000000
N          N       0.76230   0.22979   0.18882   0.0000000000
C          C       0.77253   0.19223   0.27847   0.0000000000
C          C       0.04752   0.90896   0.17918   0.0000000000
C          C       0.04635   0.95592   0.22447   0.0000000000
C          C       0.91056   0.01731   0.22642   0.0000000000
C          C       0.09392   0.88282   0.18831   0.0000000000
C          C       0.10093   0.83940   0.26734   0.0000000000
C          C       0.14419   0.81464   0.27831   0.0000000000
C          C       0.18154   0.83298   0.21197   0.0000000000
C          C       0.17440   0.87572   0.13053   0.0000000000
C          C       0.13058   0.89970   0.11514   0.0000000000
C          C       0.55053   0.59221   0.22659   0.0000000000
C          C       0.54560   0.54425   0.22184   0.0000000000
C          C       0.41788   0.48398   0.31337   0.0000000000
C          C       0.59299   0.61536   0.19685   0.0000000000
C          C       0.62756   0.63646   0.17379   0.0000000000
C          C       0.66798   0.66352   0.14939   0.0000000000
C          C       0.65823   0.70405   0.05276   0.0000000000
C          C       0.69716   0.73232   0.03904   0.0000000000
C          C       0.74654   0.72018   0.12203   0.0000000000
C          C       0.75588   0.67951   0.21804   0.0000000000
C          C       0.71693   0.65118   0.23148   0.0000000000
N          N       0.78782   0.74924   0.12211   0.0000000000
C          C       0.78758   0.78418   0.02045   0.0000000000
C          C       0.04211   0.09630   0.36523   0.0000000000
C          C       0.04357   0.04961   0.31951   0.0000000000
C          C       0.91213   0.97157   0.18527   0.0000000000
C          C       0.08583   0.12744   0.39963   0.0000000000
C          C       0.08242   0.16869   0.30647   0.0000000000
C          C       0.12304   0.19809   0.33454   0.0000000000
C          C       0.16802   0.18685   0.45646   0.0000000000
C          C       0.17102   0.14648   0.05391   0.0000000000
C          C       0.13011   0.11748   0.02769   0.0000000000
C          C       0.44946   0.40779   0.27337   0.0000000000
C          C       0.45439   0.45575   0.27810   0.0000000000
C          C       0.58211   0.51602   0.18658   0.0000000000
C          C       0.40700   0.38463   0.30312   0.0000000000
C          C       0.37244   0.36353   0.32620   0.0000000000
C          C       0.33202   0.33648   0.35063   0.0000000000
C          C       0.34178   0.29594   0.44721   0.0000000000
C          C       0.30284   0.26767   0.46098   0.0000000000
C          C       0.25346   0.27982   0.37805   0.0000000000
C          C       0.24412   0.32050   0.28208   0.0000000000
C          C       0.28307   0.34883   0.26861   0.0000000000
N          N       0.21218   0.25077   0.37800   0.0000000000
C          C       0.21243   0.21582   0.47960   0.0000000000
C          C       0.95789   0.90370   0.13485   0.0000000000
C          C       0.95643   0.95039   0.18056   0.0000000000
C          C       0.08787   0.02844   0.31479   0.0000000000
C          C       0.91417   0.87256   0.10045   0.0000000000
C          C       0.91758   0.83131   0.19361   0.0000000000
C          C       0.87696   0.80191   0.16554   0.0000000000
C          C       0.83199   0.81315   0.04360   0.0000000000
C          C       0.82899   0.85352   0.44616   0.0000000000
C          C       0.86989   0.88252   0.47238   0.0000000000
C          C       0.50275   0.52403   0.25233   0.0000000000
C          C       0.51324   0.61921   0.26011   0.0000000000
C          C       0.49724   0.47596   0.24762   0.0000000000
C          C       0.48675   0.38079   0.23984   0.0000000000
C          C       0.99935   0.02340   0.27492   0.0000000000
C          C       0.99690   0.11557   0.36840   0.0000000000
C          C       0.00066   0.97660   0.22514   0.0000000000
C          C       0.00310   0.88444   0.13167   0.0000000000
H          H       0.60573   0.44850   0.15317   0.0000000000
H          H       0.39608   0.74414   0.26150   0.0000000000
H          H       0.32681   0.79513   0.25486   0.0000000000
H          H       0.24753   0.68434   0.41140   0.0000000000
H          H       0.31827   0.63304   0.42189   0.0000000000
H          H       0.25156   0.82067   0.14666   0.0000000000
H          H       0.12572   0.96895   0.28662   0.0000000000
H          H       0.92641   0.17472   0.17388   0.0000000000
H          H       0.85098   0.21839   0.15815   0.0000000000
H          H       0.79786   0.11002   0.42603   0.0000000000
H          H       0.87468   0.06852   0.45476   0.0000000000
H          H       0.39427   0.55150   0.34677   0.0000000000
H          H       0.60390   0.25584   0.23816   0.0000000000
H          H       0.67317   0.20486   0.24480   0.0000000000
H          H       0.75250   0.31569   0.08879   0.0000000000
H          H       0.68176   0.36699   0.07830   0.0000000000
H          H       0.74841   0.17931   0.35315   0.0000000000
H          H       0.87428   0.03106   0.21344   0.0000000000
H          H       0.07360   0.82527   0.32614   0.0000000000
H          H       0.14901   0.78160   0.34179   0.0000000000
H          H       0.20214   0.88999   0.07395   0.0000000000
H          H       0.12532   0.93149   0.04529   0.0000000000
H          H       0.38506   0.46963   0.33929   0.0000000000
H          H       0.62042   0.71406   0.49006   0.0000000000
H          H       0.68820   0.76382   0.46706   0.0000000000
H          H       0.79359   0.67044   0.28547   0.0000000000
H          H       0.72484   0.62039   0.30966   0.0000000000
H          H       0.75472   0.79333   0.41857   0.0000000000
H          H       0.87754   0.95344   0.15526   0.0000000000
H          H       0.04863   0.17750   0.20805   0.0000000000
H          H       0.11989   0.22898   0.25737   0.0000000000
H          H       0.20501   0.13750   0.15115   0.0000000000
H          H       0.13308   0.08708   0.10670   0.0000000000
H          H       0.61493   0.53037   0.16065   0.0000000000
H          H       0.37959   0.28592   0.00986   0.0000000000
H          H       0.31181   0.23617   0.03291   0.0000000000
H          H       0.20641   0.32958   0.21471   0.0000000000
H          H       0.27516   0.37963   0.19047   0.0000000000
H          H       0.24530   0.20665   0.08141   0.0000000000
H          H       0.12246   0.04656   0.34482   0.0000000000
H          H       0.95138   0.82250   0.29203   0.0000000000
H          H       0.88011   0.77101   0.24269   0.0000000000
H          H       0.79500   0.86250   0.34891   0.0000000000
H          H       0.86692   0.91292   0.39338   0.0000000000
H          H       0.51699   0.65602   0.26192   0.0000000000
H          H       0.48300   0.34397   0.23803   0.0000000000
H          H       0.99628   0.15094   0.40715   0.0000000000
H          H       0.00372   0.84906   0.09291   0.0000000000
C          C       0.47096   0.59964   0.78963   0.0000000000
C          C       0.46531   0.55185   0.78691   0.0000000000
C          C       0.57677   0.46880   0.68234   0.0000000000
C          C       0.43306   0.62973   0.81510   0.0000000000
C          C       0.40082   0.65494   0.83089   0.0000000000
C          C       0.36170   0.68521   0.84137   0.0000000000
C          C       0.36391   0.73103   0.79605   0.0000000000
C          C       0.32393   0.75988   0.78971   0.0000000000
C          C       0.28099   0.74281   0.82671   0.0000000000
C          C       0.28000   0.69736   0.87922   0.0000000000
C          C       0.32003   0.66846   0.88542   0.0000000000
N          N       0.23771   0.77022   0.81115   0.0000000000
C          C       0.22746   0.80776   0.72142   0.0000000000
C          C       0.95248   0.09104   0.82088   0.0000000000
C          C       0.95365   0.04408   0.77559   0.0000000000
C          C       0.08944   0.98270   0.77364   0.0000000000
C          C       0.90608   0.11718   0.81173   0.0000000000
C          C       0.89908   0.16060   0.73267   0.0000000000
C          C       0.85581   0.18536   0.72166   0.0000000000
C          C       0.81845   0.16702   0.78799   0.0000000000
C          C       0.82560   0.12428   0.86946   0.0000000000
C          C       0.86942   0.10031   0.88489   0.0000000000
C          C       0.52903   0.40036   0.71032   0.0000000000
C          C       0.53468   0.44815   0.71303   0.0000000000
C          C       0.42322   0.53120   0.81761   0.0000000000
C          C       0.56693   0.37026   0.68484   0.0000000000
C          C       0.59917   0.34505   0.66905   0.0000000000
C          C       0.63830   0.31480   0.65856   0.0000000000
C          C       0.63607   0.26896   0.70374   0.0000000000
C          C       0.67605   0.24012   0.71007   0.0000000000
C          C       0.71901   0.25719   0.67322   0.0000000000
C          C       0.72001   0.30265   0.62084   0.0000000000
C          C       0.67998   0.33156   0.61464   0.0000000000
N          N       0.76230   0.22979   0.68882   0.0000000000
C          C       0.77253   0.19223   0.77847   0.0000000000
C          C       0.04752   0.90896   0.67918   0.0000000000
C          C       0.04635   0.95592   0.72447   0.0000000000
C          C       0.91056   0.01731   0.72642   0.0000000000
C          C       0.09392   0.88282   0.68831   0.0000000000
C          C       0.10093   0.83940   0.76734   0.0000000000
C          C       0.14419   0.81464   0.77831   0.0000000000
C          C       0.18154   0.83298   0.71197   0.0000000000
C          C       0.17440   0.87572   0.63053   0.0000000000
C          C       0.13058   0.89970   0.61514   0.0000000000
C          C       0.55053   0.59221   0.72659   0.0000000000
C          C       0.54560   0.54425   0.72184   0.0000000000
C          C       0.41788   0.48398   0.81337   0.0000000000
C          C       0.59299   0.61536   0.69686   0.0000000000
C          C       0.62756   0.63646   0.67379   0.0000000000
C          C       0.66798   0.66352   0.64939   0.0000000000
C          C       0.65823   0.70405   0.55276   0.0000000000
C          C       0.69716   0.73232   0.53904   0.0000000000
C          C       0.74654   0.72018   0.62203   0.0000000000
C          C       0.75588   0.67951   0.71804   0.0000000000
C          C       0.71693   0.65118   0.73148   0.0000000000
N          N       0.78782   0.74924   0.62211   0.0000000000
C          C       0.78758   0.78418   0.52044   0.0000000000
C          C       0.04211   0.09630   0.86523   0.0000000000
C          C       0.04357   0.04961   0.81951   0.0000000000
C          C       0.91213   0.97157   0.68527   0.0000000000
C          C       0.08583   0.12744   0.89963   0.0000000000
C          C       0.08242   0.16869   0.80647   0.0000000000
C          C       0.12304   0.19809   0.83453   0.0000000000
C          C       0.16802   0.18685   0.95646   0.0000000000
C          C       0.17102   0.14648   0.55391   0.0000000000
C          C       0.13011   0.11748   0.52769   0.0000000000
C          C       0.44946   0.40779   0.77336   0.0000000000
C          C       0.45439   0.45575   0.77810   0.0000000000
C          C       0.58211   0.51602   0.68658   0.0000000000
C          C       0.40700   0.38463   0.80312   0.0000000000
C          C       0.37244   0.36353   0.82620   0.0000000000
C          C       0.33202   0.33648   0.85063   0.0000000000
C          C       0.34178   0.29594   0.94721   0.0000000000
C          C       0.30284   0.26767   0.96097   0.0000000000
C          C       0.25346   0.27982   0.87805   0.0000000000
C          C       0.24412   0.32050   0.78208   0.0000000000
C          C       0.28307   0.34883   0.76861   0.0000000000
N          N       0.21218   0.25077   0.87800   0.0000000000
C          C       0.21243   0.21582   0.97960   0.0000000000
C          C       0.95789   0.90370   0.63485   0.0000000000
C          C       0.95643   0.95039   0.68056   0.0000000000
C          C       0.08787   0.02844   0.81480   0.0000000000
C          C       0.91417   0.87256   0.60045   0.0000000000
C          C       0.91758   0.83131   0.69361   0.0000000000
C          C       0.87696   0.80191   0.66554   0.0000000000
C          C       0.83199   0.81315   0.54361   0.0000000000
C          C       0.82899   0.85352   0.94616   0.0000000000
C          C       0.86989   0.88252   0.97238   0.0000000000
C          C       0.50275   0.52403   0.75232   0.0000000000
C          C       0.51324   0.61921   0.76011   0.0000000000
C          C       0.49724   0.47596   0.74762   0.0000000000
C          C       0.48675   0.38079   0.73984   0.0000000000
C          C       0.99935   0.02340   0.77492   0.0000000000
C          C       0.99690   0.11557   0.86840   0.0000000000
C          C       0.00066   0.97660   0.72514   0.0000000000
C          C       0.00310   0.88444   0.63167   0.0000000000
H          H       0.60573   0.44850   0.65317   0.0000000000
H          H       0.39608   0.74414   0.76150   0.0000000000
H          H       0.32681   0.79513   0.75486   0.0000000000
H          H       0.24753   0.68434   0.91140   0.0000000000
H          H       0.31827   0.63304   0.92189   0.0000000000
H          H       0.25156   0.82067   0.64666   0.0000000000
H          H       0.12572   0.96895   0.78662   0.0000000000
H          H       0.92641   0.17472   0.67388   0.0000000000
H          H       0.85098   0.21839   0.65815   0.0000000000
H          H       0.79786   0.11002   0.92603   0.0000000000
H          H       0.87468   0.06852   0.95476   0.0000000000
H          H       0.39427   0.55150   0.84677   0.0000000000
H          H       0.60390   0.25584   0.73816   0.0000000000
H          H       0.67317   0.20486   0.74480   0.0000000000
H          H       0.75250   0.31569   0.58879   0.0000000000
H          H       0.68176   0.36699   0.57830   0.0000000000
H          H       0.74841   0.17931   0.85315   0.0000000000
H          H       0.87428   0.03106   0.71344   0.0000000000
H          H       0.07360   0.82527   0.82613   0.0000000000
H          H       0.14901   0.78160   0.84179   0.0000000000
H          H       0.20214   0.88999   0.57395   0.0000000000
H          H       0.12532   0.93149   0.54529   0.0000000000
H          H       0.38506   0.46963   0.83929   0.0000000000
H          H       0.62042   0.71406   0.99006   0.0000000000
H          H       0.68820   0.76382   0.96706   0.0000000000
H          H       0.79359   0.67044   0.78546   0.0000000000
H          H       0.72484   0.62039   0.80966   0.0000000000
H          H       0.75472   0.79333   0.91857   0.0000000000
H          H       0.87754   0.95344   0.65525   0.0000000000
H          H       0.04863   0.17750   0.70805   0.0000000000
H          H       0.11989   0.22898   0.75737   0.0000000000
H          H       0.20501   0.13750   0.65115   0.0000000000
H          H       0.13308   0.08708   0.60670   0.0000000000
H          H       0.61493   0.53037   0.66065   0.0000000000
H          H       0.37959   0.28592   0.50986   0.0000000000
H          H       0.31181   0.23617   0.53291   0.0000000000
H          H       0.20641   0.32958   0.71471   0.0000000000
H          H       0.27516   0.37963   0.69047   0.0000000000
H          H       0.24530   0.20665   0.58141   0.0000000000
H          H       0.12246   0.04656   0.84482   0.0000000000
H          H       0.95138   0.82250   0.79203   0.0000000000
H          H       0.88011   0.77101   0.74269   0.0000000000
H          H       0.79500   0.86250   0.84891   0.0000000000
H          H       0.86692   0.91292   0.89338   0.0000000000
H          H       0.51699   0.65602   0.76192   0.0000000000
H          H       0.48300   0.34397   0.73803   0.0000000000
H          H       0.99628   0.15094   0.90715   0.0000000000
H          H       0.00372   0.84906   0.59291   0.0000000000
