data_crystal

_cell_length_a    58.56940
_cell_length_b    58.56940
_cell_length_c    6.94000
_cell_angle_alpha 90.00000
_cell_angle_beta  90.00000
_cell_angle_gamma 120.00000

_space_group_name_Hall 'P 1'
_space_group_name_H-M_alt  'P 1'

loop_
_symmetry_equiv_pos_as_xyz
'x,y,z' 

loop_
_atom_site_label
_atom_site_type_symbol
_atom_site_fract_x
_atom_site_fract_y
_atom_site_fract_z
C          C       0.47633   0.99969   0.29018 
C          C       0.00031   0.47664   0.29018 
C          C       0.52336   0.52367   0.29018 
C          C       0.52367   0.00031   0.29018 
C          C       0.99969   0.52336   0.29018 
C          C       0.47664   0.47633   0.29018 
C          C       0.47615   0.49971   0.28356 
C          C       0.50029   0.97644   0.28356 
C          C       0.02356   0.52385   0.28356 
C          C       0.52385   0.50029   0.28356 
C          C       0.49971   0.02356   0.28356 
C          C       0.97644   0.47615   0.28356 
C          C       0.49966   0.52354   0.29688 
C          C       0.47646   0.97612   0.29688 
C          C       0.02388   0.50034   0.29688 
C          C       0.50034   0.47646   0.29688 
C          C       0.52354   0.02388   0.29688 
C          C       0.97612   0.49966   0.29688 
C          C       0.50065   0.54750   0.31875 
C          C       0.45250   0.95315   0.31875 
C          C       0.04685   0.49935   0.31875 
C          C       0.49935   0.45250   0.31875 
C          C       0.54750   0.04685   0.31875 
C          C       0.95315   0.50065   0.31875 
C          C       0.52359   0.57153   0.30889 
C          C       0.42847   0.95206   0.30889 
C          C       0.04794   0.47641   0.30889 
C          C       0.47641   0.42847   0.30889 
C          C       0.57153   0.04794   0.30889 
C          C       0.95206   0.52359   0.30889 
C          C       0.54660   0.57076   0.29262 
C          C       0.42924   0.97584   0.29262 
C          C       0.02416   0.45340   0.29262 
C          C       0.45340   0.42924   0.29262 
C          C       0.57076   0.02416   0.29262 
C          C       0.97584   0.54660   0.29262 
C          C       0.54682   0.54745   0.28991 
C          C       0.45255   0.99937   0.28991 
C          C       0.00063   0.45318   0.28991 
C          C       0.45318   0.45255   0.28991 
C          C       0.54745   0.00063   0.28991 
C          C       0.99937   0.54682   0.28991 
C          C       0.57044   0.54785   0.28666 
C          C       0.45215   0.02259   0.28666 
C          C       0.97741   0.42956   0.28666 
C          C       0.42956   0.45215   0.28666 
C          C       0.54785   0.97741   0.28666 
C          C       0.02259   0.57044   0.28666 
C          C       0.57183   0.52518   0.26998 
C          C       0.47482   0.04665   0.26998 
C          C       0.95335   0.42817   0.26998 
C          C       0.42817   0.47482   0.26998 
C          C       0.52518   0.95335   0.26998 
C          C       0.04665   0.57183   0.26998 
C          C       0.54809   0.50190   0.26122 
C          C       0.49810   0.04619   0.26122 
C          C       0.95381   0.45191   0.26122 
C          C       0.45191   0.49810   0.26122 
C          C       0.50190   0.95381   0.26122 
C          C       0.04619   0.54809   0.26122 
C          C       0.52347   0.59520   0.31315 
C          C       0.40480   0.92827   0.31315 
C          C       0.07173   0.47653   0.31315 
C          C       0.47653   0.40480   0.31315 
C          C       0.59520   0.07173   0.31315 
C          C       0.92827   0.52347   0.31315 
C          C       0.59581   0.52570   0.26359 
C          C       0.47430   0.07011   0.26359 
C          C       0.92989   0.40419   0.26359 
C          C       0.40419   0.47430   0.26359 
C          C       0.52570   0.92989   0.26359 
C          C       0.07011   0.59581   0.26359 
C          C       0.59830   0.50471   0.32834 
C          C       0.49529   0.09359   0.32834 
C          C       0.90641   0.40170   0.32834 
C          C       0.40170   0.49529   0.32834 
C          C       0.50471   0.90641   0.32834 
C          C       0.09359   0.59830   0.32834 
C          C       0.62183   0.50509   0.32270 
C          C       0.49491   0.11674   0.32270 
C          C       0.88326   0.37817   0.32270 
C          C       0.37817   0.49491   0.32270 
C          C       0.50509   0.88326   0.32270 
C          C       0.11674   0.62183   0.32270 
C          C       0.64418   0.52683   0.25757 
C          C       0.47317   0.11735   0.25757 
C          C       0.88265   0.35582   0.25757 
C          C       0.35582   0.47317   0.25757 
C          C       0.52683   0.88265   0.25757 
C          C       0.11735   0.64418   0.25757 
C          C       0.64227   0.54800   0.19351 
C          C       0.45200   0.09427   0.19351 
C          C       0.90573   0.35773   0.19351 
C          C       0.35773   0.45200   0.19351 
C          C       0.54800   0.90573   0.19351 
C          C       0.09427   0.64227   0.19351 
C          C       0.61851   0.54723   0.19434 
C          C       0.45277   0.07128   0.19434 
C          C       0.92872   0.38149   0.19434 
C          C       0.38149   0.45277   0.19434 
C          C       0.54723   0.92872   0.19434 
C          C       0.07128   0.61851   0.19434 
C          C       0.54471   0.61832   0.38003 
C          C       0.38168   0.92639   0.38003 
C          C       0.07361   0.45529   0.38003 
C          C       0.45529   0.38168   0.38003 
C          C       0.61832   0.07361   0.38003 
C          C       0.92639   0.54471   0.38003 
C          C       0.54484   0.64176   0.37750 
C          C       0.35824   0.90308   0.37750 
C          C       0.09692   0.45516   0.37750 
C          C       0.45516   0.35824   0.37750 
C          C       0.64176   0.09692   0.37750 
C          C       0.90308   0.54484   0.37750 
C          C       0.52336   0.64299   0.31381 
C          C       0.35701   0.88037   0.31381 
C          C       0.11963   0.47664   0.31381 
C          C       0.47664   0.35701   0.31381 
C          C       0.64299   0.11963   0.31381 
C          C       0.88037   0.52336   0.31381 
C          C       0.50183   0.62019   0.25009 
C          C       0.37981   0.88164   0.25009 
C          C       0.11836   0.49817   0.25009 
C          C       0.49817   0.37981   0.25009 
C          C       0.62019   0.11836   0.25009 
C          C       0.88164   0.50183   0.25009 
C          C       0.50210   0.59696   0.24760 
C          C       0.40304   0.90514   0.24760 
C          C       0.09486   0.49790   0.24760 
C          C       0.49790   0.40304   0.24760 
C          C       0.59696   0.09486   0.24760 
C          C       0.90514   0.50210   0.24760 
N          N       0.66607   0.52567   0.26139 
N          N       0.47433   0.14040   0.26139 
N          N       0.85960   0.33393   0.26139 
N          N       0.33393   0.47433   0.26139 
N          N       0.52567   0.85960   0.26139 
N          N       0.14040   0.66607   0.26139 
C          C       0.69076   0.54379   0.22968 
C          C       0.45621   0.14697   0.22968 
C          C       0.85303   0.30924   0.22968 
C          C       0.30924   0.45621   0.22968 
C          C       0.54379   0.85303   0.22968 
C          C       0.14697   0.69076   0.22968 
C          C       0.71084   0.53817   0.23972 
C          C       0.46183   0.17267   0.23972 
C          C       0.82733   0.28916   0.23972 
C          C       0.28916   0.46183   0.23972 
C          C       0.53817   0.82733   0.23972 
C          C       0.17267   0.71084   0.23972 
C          C       0.70606   0.51274   0.25921 
C          C       0.48726   0.19332   0.25921 
C          C       0.80668   0.29394   0.25921 
C          C       0.29394   0.48726   0.25921 
C          C       0.51274   0.80668   0.25921 
C          C       0.19332   0.70606   0.25921 
C          C       0.72634   0.50738   0.26904 
C          C       0.49262   0.21896   0.26904 
C          C       0.78104   0.27366   0.26904 
C          C       0.27366   0.49262   0.26904 
C          C       0.50738   0.78104   0.26904 
C          C       0.21896   0.72634   0.26904 
C          C       0.75209   0.52789   0.26012 
C          C       0.47211   0.22420   0.26012 
C          C       0.77580   0.24791   0.26012 
C          C       0.24791   0.47211   0.26012 
C          C       0.52789   0.77580   0.26012 
C          C       0.22420   0.75209   0.26012 
C          C       0.75725   0.55352   0.24100 
C          C       0.44648   0.20373   0.24100 
C          C       0.79627   0.24275   0.24100 
C          C       0.24275   0.44648   0.24100 
C          C       0.55352   0.79627   0.24100 
C          C       0.20373   0.75725   0.24100 
C          C       0.73662   0.55835   0.23032 
C          C       0.44165   0.17827   0.23032 
C          C       0.82173   0.26338   0.23032 
C          C       0.26338   0.44165   0.23032 
C          C       0.55835   0.82173   0.23032 
C          C       0.17827   0.73662   0.23032 
N          N       0.52504   0.66630   0.31500 
N          N       0.33370   0.85874   0.31500 
N          N       0.14126   0.47496   0.31500 
N          N       0.47496   0.33370   0.31500 
N          N       0.66630   0.14126   0.31500 
N          N       0.85874   0.52504   0.31500 
C          C       0.50664   0.67275   0.29383 
C          C       0.32725   0.83389   0.29383 
C          C       0.16611   0.49336   0.29383 
C          C       0.49336   0.32725   0.29383 
C          C       0.67275   0.16611   0.29383 
C          C       0.83389   0.50664   0.29383 
C          C       0.51239   0.69850   0.28793 
C          C       0.30150   0.81389   0.28793 
C          C       0.18611   0.48761   0.28793 
C          C       0.48761   0.30150   0.28793 
C          C       0.69850   0.18611   0.28793 
C          C       0.81389   0.51239   0.28793 
C          C       0.49221   0.70409   0.29563 
C          C       0.29591   0.78812   0.29563 
C          C       0.21188   0.50779   0.29563 
C          C       0.50779   0.29591   0.29563 
C          C       0.70409   0.21188   0.29563 
C          C       0.78812   0.49221   0.29563 
C          C       0.49708   0.72958   0.28761 
C          C       0.27042   0.76750   0.28761 
C          C       0.23250   0.50292   0.28761 
C          C       0.50292   0.27042   0.28761 
C          C       0.72958   0.23250   0.28761 
C          C       0.76750   0.49708   0.28761 
C          C       0.52274   0.75005   0.27012 
C          C       0.24995   0.77269   0.27012 
C          C       0.22731   0.47726   0.27012 
C          C       0.47726   0.24995   0.27012 
C          C       0.75005   0.22731   0.27012 
C          C       0.77269   0.52274   0.27012 
C          C       0.54325   0.74480   0.26227 
C          C       0.25520   0.79845   0.26227 
C          C       0.20155   0.45675   0.26227 
C          C       0.45675   0.25520   0.26227 
C          C       0.74480   0.20155   0.26227 
C          C       0.79845   0.54325   0.26227 
C          C       0.53788   0.71916   0.27213 
C          C       0.28084   0.81872   0.27213 
C          C       0.18128   0.46212   0.27213 
C          C       0.46212   0.28084   0.27213 
C          C       0.71916   0.18128   0.27213 
C          C       0.81872   0.53788   0.27213 
H          H       0.48416   0.54766   0.34593 
H          H       0.45234   0.93650   0.34593 
H          H       0.06350   0.51584   0.34593 
H          H       0.51584   0.45234   0.34593 
H          H       0.54766   0.06350   0.34593 
H          H       0.93650   0.48416   0.34593 
H          H       0.56373   0.58749   0.28126 
H          H       0.41251   0.97624   0.28126 
H          H       0.02376   0.43627   0.28126 
H          H       0.43627   0.41251   0.28126 
H          H       0.58749   0.02376   0.28126 
H          H       0.97624   0.56373   0.28126 
H          H       0.58694   0.56520   0.29759 
H          H       0.43480   0.02174   0.29759 
H          H       0.97826   0.41306   0.29759 
H          H       0.41306   0.43480   0.29759 
H          H       0.56520   0.97826   0.29759 
H          H       0.02174   0.58694   0.29759 
H          H       0.54868   0.48563   0.23424 
H          H       0.51437   0.06305   0.23424 
H          H       0.93695   0.45132   0.23424 
H          H       0.45132   0.51437   0.23424 
H          H       0.48563   0.93695   0.23424 
H          H       0.06305   0.54868   0.23424 
C          C       0.78294   0.57372   0.23319 
C          C       0.42628   0.20922   0.23319 
C          C       0.79078   0.21706   0.23319 
C          C       0.21706   0.42628   0.23319 
C          C       0.57372   0.79078   0.23319 
C          C       0.20922   0.78294   0.23319 
C          C       0.80330   0.56865   0.24399 
C          C       0.43135   0.23465   0.24399 
C          C       0.76535   0.19670   0.24399 
C          C       0.19670   0.43135   0.24399 
C          C       0.56865   0.76535   0.24399 
C          C       0.23465   0.80330   0.24399 
C          C       0.72147   0.48198   0.28738 
C          C       0.51802   0.23949   0.28738 
C          C       0.76051   0.27853   0.28738 
C          C       0.27853   0.51802   0.28738 
C          C       0.48198   0.76051   0.28738 
C          C       0.23949   0.72147   0.28738 
C          C       0.74182   0.47689   0.29629 
C          C       0.52311   0.26493   0.29629 
C          C       0.73507   0.25818   0.29629 
C          C       0.25818   0.52311   0.29629 
C          C       0.47689   0.73507   0.29629 
C          C       0.26493   0.74182   0.29629 
H          H       0.58302   0.48874   0.38394 
H          H       0.51126   0.09428   0.38394 
H          H       0.90572   0.41698   0.38394 
H          H       0.41698   0.51126   0.38394 
H          H       0.48874   0.90572   0.38394 
H          H       0.09428   0.58302   0.38394 
H          H       0.62258   0.48939   0.36933 
H          H       0.51061   0.13319   0.36933 
H          H       0.86681   0.37742   0.36933 
H          H       0.37742   0.51061   0.36933 
H          H       0.48939   0.86681   0.36933 
H          H       0.13319   0.62258   0.36933 
H          H       0.65800   0.56405   0.14352 
H          H       0.43595   0.09395   0.14352 
H          H       0.90605   0.34200   0.14352 
H          H       0.34200   0.43595   0.14352 
H          H       0.56405   0.90605   0.14352 
H          H       0.09395   0.65800   0.14352 
H          H       0.61818   0.56279   0.14088 
H          H       0.43721   0.05539   0.14088 
H          H       0.94461   0.38182   0.14088 
H          H       0.38182   0.43721   0.14088 
H          H       0.56279   0.94461   0.14088 
H          H       0.05539   0.61818   0.14088 
H          H       0.56054   0.61854   0.43374 
H          H       0.38146   0.94200   0.43374 
H          H       0.05800   0.43946   0.43374 
H          H       0.43946   0.38146   0.43374 
H          H       0.61854   0.05800   0.43374 
H          H       0.94200   0.56054   0.43374 
H          H       0.56076   0.65798   0.42452 
H          H       0.34202   0.90278   0.42452 
H          H       0.09722   0.43924   0.42452 
H          H       0.43924   0.34202   0.42452 
H          H       0.65798   0.09722   0.42452 
H          H       0.90278   0.56076   0.42452 
H          H       0.48592   0.62026   0.20133 
H          H       0.37974   0.86566   0.20133 
H          H       0.13434   0.51408   0.20133 
H          H       0.51408   0.37974   0.20133 
H          H       0.62026   0.13434   0.20133 
H          H       0.86566   0.48592   0.20133 
H          H       0.48631   0.58136   0.19322 
H          H       0.41864   0.90495   0.19322 
H          H       0.09505   0.51369   0.19322 
H          H       0.51369   0.41864   0.19322 
H          H       0.58136   0.09505   0.19322 
H          H       0.90495   0.48631   0.19322 
H          H       0.69505   0.56213   0.19979 
H          H       0.43787   0.13292   0.19979 
H          H       0.86708   0.30495   0.19979 
H          H       0.30495   0.43787   0.19979 
H          H       0.56213   0.86708   0.19979 
H          H       0.13292   0.69505   0.19979 
H          H       0.68757   0.49780   0.26587 
H          H       0.50220   0.18977   0.26587 
H          H       0.81023   0.31243   0.26587 
H          H       0.31243   0.50220   0.26587 
H          H       0.49780   0.81023   0.26587 
H          H       0.18977   0.68757   0.26587 
H          H       0.74048   0.57689   0.21604 
H          H       0.42311   0.16359   0.21604 
H          H       0.83641   0.25952   0.21604 
H          H       0.25952   0.42311   0.21604 
H          H       0.57689   0.83641   0.21604 
H          H       0.16359   0.74048   0.21604 
H          H       0.48790   0.65850   0.28278 
H          H       0.34150   0.82940   0.28278 
H          H       0.17060   0.51210   0.28278 
H          H       0.51210   0.34150   0.28278 
H          H       0.65850   0.17060   0.28278 
H          H       0.82940   0.48790   0.28278 
H          H       0.47363   0.68940   0.30745 
H          H       0.31060   0.78423   0.30745 
H          H       0.21577   0.52637   0.30745 
H          H       0.52637   0.31060   0.30745 
H          H       0.68940   0.21577   0.30745 
H          H       0.78423   0.47363   0.30745 
H          H       0.55279   0.71556   0.26626 
H          H       0.28444   0.83723   0.26626 
H          H       0.16277   0.44721   0.26626 
H          H       0.44721   0.28444   0.26626 
H          H       0.71556   0.16277   0.26626 
H          H       0.83723   0.55279   0.26626 
H          H       0.78707   0.59233   0.21957 
H          H       0.40767   0.19474   0.21957 
H          H       0.80526   0.21293   0.21957 
H          H       0.21293   0.40767   0.21957 
H          H       0.59233   0.80526   0.21957 
H          H       0.19474   0.78707   0.21957 
H          H       0.82173   0.58370   0.23806 
H          H       0.41630   0.23803   0.23806 
H          H       0.76197   0.17827   0.23806 
H          H       0.17827   0.41630   0.23806 
H          H       0.58370   0.76197   0.23806 
H          H       0.23803   0.82173   0.23806 
H          H       0.70305   0.46694   0.29422 
H          H       0.53306   0.23611   0.29422 
H          H       0.76389   0.29695   0.29422 
H          H       0.29695   0.53306   0.29422 
H          H       0.46694   0.76389   0.29422 
H          H       0.23611   0.70305   0.29422 
H          H       0.73769   0.45826   0.30921 
H          H       0.54174   0.27943   0.30921 
H          H       0.72057   0.26231   0.30921 
H          H       0.26231   0.54174   0.30921 
H          H       0.45826   0.72057   0.30921 
H          H       0.27943   0.73769   0.30921 
C          C       0.47633   0.99969   0.79018 
C          C       0.00031   0.47664   0.79018 
C          C       0.52336   0.52367   0.79018 
C          C       0.52367   0.00031   0.79018 
C          C       0.99969   0.52336   0.79018 
C          C       0.47664   0.47633   0.79018 
C          C       0.47615   0.49971   0.78356 
C          C       0.50029   0.97644   0.78356 
C          C       0.02356   0.52385   0.78356 
C          C       0.52385   0.50029   0.78356 
C          C       0.49971   0.02356   0.78356 
C          C       0.97644   0.47615   0.78356 
C          C       0.49966   0.52354   0.79688 
C          C       0.47646   0.97612   0.79688 
C          C       0.02388   0.50034   0.79688 
C          C       0.50034   0.47646   0.79688 
C          C       0.52354   0.02388   0.79688 
C          C       0.97612   0.49966   0.79688 
C          C       0.50065   0.54750   0.81875 
C          C       0.45250   0.95315   0.81875 
C          C       0.04685   0.49935   0.81875 
C          C       0.49935   0.45250   0.81875 
C          C       0.54750   0.04685   0.81875 
C          C       0.95315   0.50065   0.81875 
C          C       0.52359   0.57153   0.80889 
C          C       0.42847   0.95206   0.80889 
C          C       0.04794   0.47641   0.80889 
C          C       0.47641   0.42847   0.80889 
C          C       0.57153   0.04794   0.80889 
C          C       0.95206   0.52359   0.80889 
C          C       0.54660   0.57076   0.79262 
C          C       0.42924   0.97584   0.79262 
C          C       0.02416   0.45340   0.79262 
C          C       0.45340   0.42924   0.79262 
C          C       0.57076   0.02416   0.79262 
C          C       0.97584   0.54660   0.79262 
C          C       0.54682   0.54745   0.78992 
C          C       0.45255   0.99937   0.78992 
C          C       0.00063   0.45318   0.78992 
C          C       0.45318   0.45255   0.78992 
C          C       0.54745   0.00063   0.78992 
C          C       0.99937   0.54682   0.78992 
C          C       0.57044   0.54785   0.78666 
C          C       0.45215   0.02259   0.78666 
C          C       0.97741   0.42956   0.78666 
C          C       0.42956   0.45215   0.78666 
C          C       0.54785   0.97741   0.78666 
C          C       0.02259   0.57044   0.78666 
C          C       0.57183   0.52518   0.76998 
C          C       0.47482   0.04665   0.76998 
C          C       0.95335   0.42817   0.76998 
C          C       0.42817   0.47482   0.76998 
C          C       0.52518   0.95335   0.76998 
C          C       0.04665   0.57183   0.76998 
C          C       0.54809   0.50190   0.76122 
C          C       0.49810   0.04619   0.76122 
C          C       0.95381   0.45191   0.76122 
C          C       0.45191   0.49810   0.76122 
C          C       0.50190   0.95381   0.76122 
C          C       0.04619   0.54809   0.76122 
C          C       0.52347   0.59520   0.81315 
C          C       0.40480   0.92827   0.81315 
C          C       0.07173   0.47653   0.81315 
C          C       0.47653   0.40480   0.81315 
C          C       0.59520   0.07173   0.81315 
C          C       0.92827   0.52347   0.81315 
C          C       0.59581   0.52570   0.76359 
C          C       0.47430   0.07011   0.76359 
C          C       0.92989   0.40419   0.76359 
C          C       0.40419   0.47430   0.76359 
C          C       0.52570   0.92989   0.76359 
C          C       0.07011   0.59581   0.76359 
C          C       0.59830   0.50471   0.82834 
C          C       0.49529   0.09359   0.82834 
C          C       0.90641   0.40170   0.82834 
C          C       0.40170   0.49529   0.82834 
C          C       0.50471   0.90641   0.82834 
C          C       0.09359   0.59830   0.82834 
C          C       0.62183   0.50509   0.82269 
C          C       0.49491   0.11674   0.82269 
C          C       0.88326   0.37817   0.82269 
C          C       0.37817   0.49491   0.82269 
C          C       0.50509   0.88326   0.82269 
C          C       0.11674   0.62183   0.82269 
C          C       0.64418   0.52683   0.75757 
C          C       0.47317   0.11735   0.75757 
C          C       0.88265   0.35582   0.75757 
C          C       0.35582   0.47317   0.75757 
C          C       0.52683   0.88265   0.75757 
C          C       0.11735   0.64418   0.75757 
C          C       0.64227   0.54800   0.69351 
C          C       0.45200   0.09427   0.69351 
C          C       0.90573   0.35773   0.69351 
C          C       0.35773   0.45200   0.69351 
C          C       0.54800   0.90573   0.69351 
C          C       0.09427   0.64227   0.69351 
C          C       0.61851   0.54723   0.69434 
C          C       0.45277   0.07128   0.69434 
C          C       0.92872   0.38149   0.69434 
C          C       0.38149   0.45277   0.69434 
C          C       0.54723   0.92872   0.69434 
C          C       0.07128   0.61851   0.69434 
C          C       0.54471   0.61832   0.88003 
C          C       0.38168   0.92639   0.88003 
C          C       0.07361   0.45529   0.88003 
C          C       0.45529   0.38168   0.88003 
C          C       0.61832   0.07361   0.88003 
C          C       0.92639   0.54471   0.88003 
C          C       0.54484   0.64176   0.87750 
C          C       0.35824   0.90308   0.87750 
C          C       0.09692   0.45516   0.87750 
C          C       0.45516   0.35824   0.87750 
C          C       0.64176   0.09692   0.87750 
C          C       0.90308   0.54484   0.87750 
C          C       0.52336   0.64299   0.81381 
C          C       0.35701   0.88037   0.81381 
C          C       0.11963   0.47664   0.81381 
C          C       0.47664   0.35701   0.81381 
C          C       0.64299   0.11963   0.81381 
C          C       0.88037   0.52336   0.81381 
C          C       0.50183   0.62019   0.75009 
C          C       0.37981   0.88164   0.75009 
C          C       0.11836   0.49817   0.75009 
C          C       0.49817   0.37981   0.75009 
C          C       0.62019   0.11836   0.75009 
C          C       0.88164   0.50183   0.75009 
C          C       0.50210   0.59696   0.74760 
C          C       0.40304   0.90514   0.74760 
C          C       0.09486   0.49790   0.74760 
C          C       0.49790   0.40304   0.74760 
C          C       0.59696   0.09486   0.74760 
C          C       0.90514   0.50210   0.74760 
N          N       0.66607   0.52567   0.76140 
N          N       0.47433   0.14040   0.76140 
N          N       0.85960   0.33393   0.76140 
N          N       0.33393   0.47433   0.76140 
N          N       0.52567   0.85960   0.76140 
N          N       0.14040   0.66607   0.76140 
C          C       0.69076   0.54379   0.72967 
C          C       0.45621   0.14697   0.72967 
C          C       0.85303   0.30924   0.72967 
C          C       0.30924   0.45621   0.72967 
C          C       0.54379   0.85303   0.72967 
C          C       0.14697   0.69076   0.72967 
C          C       0.71084   0.53817   0.73972 
C          C       0.46183   0.17267   0.73972 
C          C       0.82733   0.28916   0.73972 
C          C       0.28916   0.46183   0.73972 
C          C       0.53817   0.82733   0.73972 
C          C       0.17267   0.71084   0.73972 
C          C       0.70606   0.51274   0.75921 
C          C       0.48726   0.19332   0.75921 
C          C       0.80668   0.29394   0.75921 
C          C       0.29394   0.48726   0.75921 
C          C       0.51274   0.80668   0.75921 
C          C       0.19332   0.70606   0.75921 
C          C       0.72634   0.50738   0.76904 
C          C       0.49262   0.21896   0.76904 
C          C       0.78104   0.27366   0.76904 
C          C       0.27366   0.49262   0.76904 
C          C       0.50738   0.78104   0.76904 
C          C       0.21896   0.72634   0.76904 
C          C       0.75209   0.52789   0.76013 
C          C       0.47211   0.22420   0.76013 
C          C       0.77580   0.24791   0.76013 
C          C       0.24791   0.47211   0.76013 
C          C       0.52789   0.77580   0.76013 
C          C       0.22420   0.75209   0.76013 
C          C       0.75725   0.55352   0.74101 
C          C       0.44648   0.20373   0.74101 
C          C       0.79627   0.24275   0.74101 
C          C       0.24275   0.44648   0.74101 
C          C       0.55352   0.79627   0.74101 
C          C       0.20373   0.75725   0.74101 
C          C       0.73662   0.55835   0.73032 
C          C       0.44165   0.17827   0.73032 
C          C       0.82173   0.26338   0.73032 
C          C       0.26338   0.44165   0.73032 
C          C       0.55835   0.82173   0.73032 
C          C       0.17827   0.73662   0.73032 
N          N       0.52504   0.66630   0.81500 
N          N       0.33370   0.85874   0.81500 
N          N       0.14126   0.47496   0.81500 
N          N       0.47496   0.33370   0.81500 
N          N       0.66630   0.14126   0.81500 
N          N       0.85874   0.52504   0.81500 
C          C       0.50664   0.67275   0.79383 
C          C       0.32725   0.83389   0.79383 
C          C       0.16611   0.49336   0.79383 
C          C       0.49336   0.32725   0.79383 
C          C       0.67275   0.16611   0.79383 
C          C       0.83389   0.50664   0.79383 
C          C       0.51239   0.69850   0.78794 
C          C       0.30150   0.81389   0.78794 
C          C       0.18611   0.48761   0.78794 
C          C       0.48761   0.30150   0.78794 
C          C       0.69850   0.18611   0.78794 
C          C       0.81389   0.51239   0.78794 
C          C       0.49221   0.70409   0.79563 
C          C       0.29591   0.78812   0.79563 
C          C       0.21188   0.50779   0.79563 
C          C       0.50779   0.29591   0.79563 
C          C       0.70409   0.21188   0.79563 
C          C       0.78812   0.49221   0.79563 
C          C       0.49708   0.72958   0.78761 
C          C       0.27042   0.76750   0.78761 
C          C       0.23250   0.50292   0.78761 
C          C       0.50292   0.27042   0.78761 
C          C       0.72958   0.23250   0.78761 
C          C       0.76750   0.49708   0.78761 
C          C       0.52274   0.75005   0.77012 
C          C       0.24995   0.77269   0.77012 
C          C       0.22731   0.47726   0.77012 
C          C       0.47726   0.24995   0.77012 
C          C       0.75005   0.22731   0.77012 
C          C       0.77269   0.52274   0.77012 
C          C       0.54325   0.74480   0.76226 
C          C       0.25520   0.79845   0.76226 
C          C       0.20155   0.45675   0.76226 
C          C       0.45675   0.25520   0.76226 
C          C       0.74480   0.20155   0.76226 
C          C       0.79845   0.54325   0.76226 
C          C       0.53788   0.71916   0.77213 
C          C       0.28084   0.81872   0.77213 
C          C       0.18128   0.46212   0.77213 
C          C       0.46212   0.28084   0.77213 
C          C       0.71916   0.18128   0.77213 
C          C       0.81872   0.53788   0.77213 
H          H       0.48416   0.54766   0.84593 
H          H       0.45234   0.93650   0.84593 
H          H       0.06350   0.51584   0.84593 
H          H       0.51584   0.45234   0.84593 
H          H       0.54766   0.06350   0.84593 
H          H       0.93650   0.48416   0.84593 
H          H       0.56373   0.58749   0.78127 
H          H       0.41251   0.97624   0.78127 
H          H       0.02376   0.43627   0.78127 
H          H       0.43627   0.41251   0.78127 
H          H       0.58749   0.02376   0.78127 
H          H       0.97624   0.56373   0.78127 
H          H       0.58694   0.56520   0.79759 
H          H       0.43480   0.02174   0.79759 
H          H       0.97826   0.41306   0.79759 
H          H       0.41306   0.43480   0.79759 
H          H       0.56520   0.97826   0.79759 
H          H       0.02174   0.58694   0.79759 
H          H       0.54868   0.48563   0.73424 
H          H       0.51437   0.06305   0.73424 
H          H       0.93695   0.45132   0.73424 
H          H       0.45132   0.51437   0.73424 
H          H       0.48563   0.93695   0.73424 
H          H       0.06305   0.54868   0.73424 
C          C       0.78294   0.57372   0.73319 
C          C       0.42628   0.20922   0.73319 
C          C       0.79078   0.21706   0.73319 
C          C       0.21706   0.42628   0.73319 
C          C       0.57372   0.79078   0.73319 
C          C       0.20922   0.78294   0.73319 
C          C       0.80330   0.56865   0.74400 
C          C       0.43135   0.23465   0.74400 
C          C       0.76535   0.19670   0.74400 
C          C       0.19670   0.43135   0.74400 
C          C       0.56865   0.76535   0.74400 
C          C       0.23465   0.80330   0.74400 
C          C       0.72147   0.48198   0.78738 
C          C       0.51802   0.23949   0.78738 
C          C       0.76051   0.27853   0.78738 
C          C       0.27853   0.51802   0.78738 
C          C       0.48198   0.76051   0.78738 
C          C       0.23949   0.72147   0.78738 
C          C       0.74182   0.47689   0.79629 
C          C       0.52311   0.26493   0.79629 
C          C       0.73507   0.25818   0.79629 
C          C       0.25818   0.52311   0.79629 
C          C       0.47689   0.73507   0.79629 
C          C       0.26493   0.74182   0.79629 
H          H       0.58302   0.48874   0.88394 
H          H       0.51126   0.09428   0.88394 
H          H       0.90572   0.41698   0.88394 
H          H       0.41698   0.51126   0.88394 
H          H       0.48874   0.90572   0.88394 
H          H       0.09428   0.58302   0.88394 
H          H       0.62258   0.48939   0.86933 
H          H       0.51061   0.13319   0.86933 
H          H       0.86681   0.37742   0.86933 
H          H       0.37742   0.51061   0.86933 
H          H       0.48939   0.86681   0.86933 
H          H       0.13319   0.62258   0.86933 
H          H       0.65800   0.56405   0.64352 
H          H       0.43595   0.09395   0.64352 
H          H       0.90605   0.34200   0.64352 
H          H       0.34200   0.43595   0.64352 
H          H       0.56405   0.90605   0.64352 
H          H       0.09395   0.65800   0.64352 
H          H       0.61818   0.56279   0.64088 
H          H       0.43721   0.05539   0.64088 
H          H       0.94461   0.38182   0.64088 
H          H       0.38182   0.43721   0.64088 
H          H       0.56279   0.94461   0.64088 
H          H       0.05539   0.61818   0.64088 
H          H       0.56054   0.61854   0.93374 
H          H       0.38146   0.94200   0.93374 
H          H       0.05800   0.43946   0.93374 
H          H       0.43946   0.38146   0.93374 
H          H       0.61854   0.05800   0.93374 
H          H       0.94200   0.56054   0.93374 
H          H       0.56076   0.65798   0.92452 
H          H       0.34202   0.90278   0.92452 
H          H       0.09722   0.43924   0.92452 
H          H       0.43924   0.34202   0.92452 
H          H       0.65798   0.09722   0.92452 
H          H       0.90278   0.56076   0.92452 
H          H       0.48592   0.62026   0.70133 
H          H       0.37974   0.86566   0.70133 
H          H       0.13434   0.51408   0.70133 
H          H       0.51408   0.37974   0.70133 
H          H       0.62026   0.13434   0.70133 
H          H       0.86566   0.48592   0.70133 
H          H       0.48631   0.58136   0.69322 
H          H       0.41864   0.90495   0.69322 
H          H       0.09505   0.51369   0.69322 
H          H       0.51369   0.41864   0.69322 
H          H       0.58136   0.09505   0.69322 
H          H       0.90495   0.48631   0.69322 
H          H       0.69505   0.56213   0.69979 
H          H       0.43787   0.13292   0.69979 
H          H       0.86708   0.30495   0.69979 
H          H       0.30495   0.43787   0.69979 
H          H       0.56213   0.86708   0.69979 
H          H       0.13292   0.69505   0.69979 
H          H       0.68757   0.49780   0.76587 
H          H       0.50220   0.18977   0.76587 
H          H       0.81023   0.31243   0.76587 
H          H       0.31243   0.50220   0.76587 
H          H       0.49780   0.81023   0.76587 
H          H       0.18977   0.68757   0.76587 
H          H       0.74048   0.57689   0.71605 
H          H       0.42311   0.16359   0.71605 
H          H       0.83641   0.25952   0.71605 
H          H       0.25952   0.42311   0.71605 
H          H       0.57689   0.83641   0.71605 
H          H       0.16359   0.74048   0.71605 
H          H       0.48790   0.65850   0.78278 
H          H       0.34150   0.82940   0.78278 
H          H       0.17060   0.51210   0.78278 
H          H       0.51210   0.34150   0.78278 
H          H       0.65850   0.17060   0.78278 
H          H       0.82940   0.48790   0.78278 
H          H       0.47363   0.68940   0.80745 
H          H       0.31060   0.78423   0.80745 
H          H       0.21577   0.52637   0.80745 
H          H       0.52637   0.31060   0.80745 
H          H       0.68940   0.21577   0.80745 
H          H       0.78423   0.47363   0.80745 
H          H       0.55279   0.71556   0.76626 
H          H       0.28444   0.83723   0.76626 
H          H       0.16277   0.44721   0.76626 
H          H       0.44721   0.28444   0.76626 
H          H       0.71556   0.16277   0.76626 
H          H       0.83723   0.55279   0.76626 
H          H       0.78707   0.59233   0.71957 
H          H       0.40767   0.19474   0.71957 
H          H       0.80526   0.21293   0.71957 
H          H       0.21293   0.40767   0.71957 
H          H       0.59233   0.80526   0.71957 
H          H       0.19474   0.78707   0.71957 
H          H       0.82173   0.58370   0.73806 
H          H       0.41630   0.23803   0.73806 
H          H       0.76197   0.17827   0.73806 
H          H       0.17827   0.41630   0.73806 
H          H       0.58370   0.76197   0.73806 
H          H       0.23803   0.82173   0.73806 
H          H       0.70305   0.46694   0.79422 
H          H       0.53306   0.23611   0.79422 
H          H       0.76389   0.29695   0.79422 
H          H       0.29695   0.53306   0.79422 
H          H       0.46694   0.76389   0.79422 
H          H       0.23611   0.70305   0.79422 
H          H       0.73769   0.45826   0.80921 
H          H       0.54174   0.27943   0.80921 
H          H       0.72057   0.26231   0.80921 
H          H       0.26231   0.54174   0.80921 
H          H       0.45826   0.72057   0.80921 
H          H       0.27943   0.73769   0.80921 
