data_crystal

_cell_length_a    61.64640
_cell_length_b    33.51500
_cell_length_c    33.00890
_cell_angle_alpha 90.00000
_cell_angle_beta  90.00000
_cell_angle_gamma 90.00000

_space_group_name_Hall 'P 1'
_space_group_name_H-M_alt  'P 1'

loop_
_symmetry_equiv_pos_as_xyz
'x,y,z' 

loop_
_atom_site_label
_atom_site_type_symbol
_atom_site_fract_x
_atom_site_fract_y
_atom_site_fract_z
C          C       0.37612   0.54715   0.69842 
C          C       0.62388   0.45285   0.19842 
C          C       0.37612   0.45285   0.19842 
C          C       0.62388   0.54715   0.69842 
C          C       0.36090   0.54839   0.72976 
C          C       0.63910   0.45161   0.22976 
C          C       0.36090   0.45161   0.22976 
C          C       0.63910   0.54839   0.72976 
C          C       0.07011   0.82385   0.46917 
C          C       0.92989   0.17615   0.96917 
C          C       0.07011   0.17615   0.96917 
C          C       0.92989   0.82385   0.46917 
C          C       0.08539   0.79311   0.47174 
C          C       0.91461   0.20689   0.97174 
C          C       0.08539   0.20689   0.97174 
C          C       0.91461   0.79311   0.47174 
C          C       0.39753   0.40265   0.23251 
C          C       0.60247   0.59735   0.73251 
C          C       0.39753   0.59735   0.73251 
C          C       0.60247   0.40265   0.23251 
C          C       0.38230   0.40135   0.26384 
C          C       0.61770   0.59865   0.76384 
C          C       0.38230   0.59865   0.76384 
C          C       0.61770   0.40135   0.26384 
C          C       0.05742   0.93451   0.02442 
C          C       0.94258   0.06549   0.52442 
C          C       0.05742   0.06549   0.52442 
C          C       0.94258   0.93451   0.02442 
C          C       0.07277   0.90390   0.02414 
C          C       0.92723   0.09610   0.52414 
C          C       0.07277   0.09610   0.52414 
C          C       0.92723   0.90390   0.02414 
C          C       0.45445   0.55877   0.53449 
C          C       0.54555   0.44123   0.03449 
C          C       0.45445   0.44123   0.03449 
C          C       0.54555   0.55877   0.53449 
C          C       0.46076   0.55800   0.57552 
C          C       0.53924   0.44200   0.07552 
C          C       0.46076   0.44200   0.07552 
C          C       0.53924   0.55800   0.57552 
C          C       0.44365   0.56179   0.60716 
C          C       0.55635   0.43821   0.10716 
C          C       0.44365   0.43821   0.10716 
C          C       0.55635   0.56179   0.60716 
C          C       0.36393   0.57391   0.76273 
C          C       0.63607   0.42609   0.26273 
C          C       0.36393   0.42609   0.26273 
C          C       0.63607   0.57391   0.76273 
N          N       0.34877   0.57266   0.79557 
N          N       0.65123   0.42734   0.29557 
N          N       0.34877   0.42734   0.29557 
N          N       0.65123   0.57266   0.79557 
C          C       0.56628   0.56829   0.52156 
C          C       0.43372   0.43171   0.02156 
C          C       0.56628   0.43171   0.02156 
C          C       0.43372   0.56829   0.52156 
C          C       0.98262   0.14912   0.99779 
C          C       0.01738   0.85088   0.49779 
C          C       0.98262   0.85088   0.49779 
C          C       0.01738   0.14912   0.99779 
C          C       0.98889   0.18877   0.99730 
C          C       0.01111   0.81123   0.49730 
C          C       0.98889   0.81123   0.49730 
C          C       0.01111   0.18877   0.99730 
C          C       0.94385   0.16847   0.00174 
C          C       0.05615   0.83153   0.50174 
C          C       0.94385   0.83153   0.50174 
C          C       0.05615   0.16847   0.00174 
C          C       0.86932   0.33019   0.01302 
C          C       0.13068   0.66981   0.51302 
C          C       0.86932   0.66981   0.51302 
C          C       0.13068   0.33019   0.01302 
N          N       0.85596   0.36504   0.01545 
N          N       0.14404   0.63496   0.51545 
N          N       0.85596   0.63496   0.51545 
N          N       0.14404   0.36504   0.01545 
C          C       0.03927   0.13702   0.99866 
C          C       0.96073   0.86298   0.49866 
C          C       0.03927   0.86298   0.49866 
C          C       0.96073   0.13702   0.99866 
C          C       0.37829   0.54745   0.30047 
C          C       0.62171   0.45255   0.80047 
C          C       0.37829   0.45255   0.80047 
C          C       0.62171   0.54745   0.30047 
C          C       0.36465   0.54949   0.26660 
C          C       0.63535   0.45051   0.76660 
C          C       0.36465   0.45051   0.76660 
C          C       0.63535   0.54949   0.26660 
C          C       0.07056   0.04261   0.45937 
C          C       0.92944   0.95739   0.95937 
C          C       0.07056   0.95739   0.95937 
C          C       0.92944   0.04261   0.45937 
C          C       0.40955   0.45439   0.75618 
C          C       0.59045   0.54561   0.25618 
C          C       0.40955   0.54561   0.25618 
C          C       0.59045   0.45439   0.75618 
C          C       0.39597   0.45284   0.72247 
C          C       0.60403   0.54716   0.22247 
C          C       0.39597   0.54716   0.22247 
C          C       0.60403   0.45284   0.72247 
C          C       0.05776   0.19154   0.03697 
C          C       0.94224   0.80846   0.53697 
C          C       0.05776   0.80846   0.53697 
C          C       0.94224   0.19154   0.03697 
C          C       0.07302   0.22218   0.03951 
C          C       0.92698   0.77782   0.53951 
C          C       0.07302   0.77782   0.53951 
C          C       0.92698   0.22218   0.03951 
C          C       0.45449   0.55154   0.46991 
C          C       0.54551   0.44846   0.96991 
C          C       0.45449   0.44846   0.96991 
C          C       0.54551   0.55154   0.46991 
C          C       0.46094   0.54145   0.43024 
C          C       0.53906   0.45855   0.93024 
C          C       0.46094   0.45855   0.93024 
C          C       0.53906   0.54145   0.43024 
C          C       0.40088   0.54578   0.29545 
C          C       0.59912   0.45422   0.79545 
C          C       0.40088   0.45422   0.79545 
C          C       0.59912   0.54578   0.29545 
C          C       0.37353   0.54950   0.22739 
C          C       0.62647   0.45050   0.72739 
C          C       0.37353   0.45050   0.72739 
C          C       0.62647   0.54950   0.22739 
N          N       0.36023   0.55093   0.19195 
N          N       0.63977   0.44907   0.69195 
N          N       0.36023   0.44907   0.69195 
N          N       0.63977   0.55093   0.19195 
C          C       0.56623   0.56378   0.48019 
C          C       0.43377   0.43622   0.98019 
C          C       0.56623   0.43622   0.98019 
C          C       0.43377   0.56378   0.48019 
C          C       0.98262   0.98099   0.98976 
C          C       0.01738   0.01901   0.48976 
C          C       0.98262   0.01901   0.48976 
C          C       0.01738   0.98099   0.98976 
C          C       0.98889   0.94157   0.98533 
C          C       0.01111   0.05843   0.48533 
C          C       0.98889   0.05843   0.48533 
C          C       0.01111   0.94157   0.98533 
C          C       0.94383   0.96133   0.99197 
C          C       0.05617   0.03867   0.49197 
C          C       0.94383   0.03867   0.49197 
C          C       0.05617   0.96133   0.99197 
C          C       0.86816   0.80094   0.98844 
C          C       0.13184   0.19906   0.48844 
C          C       0.86816   0.19906   0.48844 
C          C       0.13184   0.80094   0.98844 
N          N       0.85384   0.76737   0.98592 
N          N       0.14616   0.23263   0.48592 
N          N       0.85384   0.23263   0.48592 
N          N       0.14616   0.76737   0.98592 
C          C       0.03928   0.99293   0.99184 
C          C       0.96072   0.00707   0.49184 
C          C       0.03928   0.00707   0.49184 
C          C       0.96072   0.99293   0.99184 
N          N       0.96738   0.06502   0.99429 
N          N       0.03262   0.93498   0.49429 
N          N       0.96738   0.93498   0.49429 
N          N       0.03262   0.06502   0.99429 
N          N       0.46730   0.54874   0.50300 
N          N       0.53270   0.45126   0.00300 
N          N       0.46730   0.45126   0.00300 
N          N       0.53270   0.54874   0.50300 
C          C       0.48258   0.55399   0.58782 
C          C       0.51742   0.44601   0.08782 
C          C       0.48258   0.44601   0.08782 
C          C       0.51742   0.55399   0.58782 
C          C       0.48887   0.54931   0.62780 
C          C       0.51113   0.45069   0.12780 
C          C       0.48887   0.45069   0.12780 
C          C       0.51113   0.54931   0.62780 
C          C       0.48262   0.53166   0.42080 
C          C       0.51738   0.46834   0.92080 
C          C       0.48262   0.46834   0.92080 
C          C       0.51738   0.53166   0.42080 
C          C       0.48889   0.51459   0.38445 
C          C       0.51111   0.48541   0.88445 
C          C       0.48889   0.48541   0.88445 
C          C       0.51111   0.51459   0.38445 
C          C       0.04595   0.90312   0.49749 
C          C       0.95405   0.09688   0.99749 
C          C       0.04595   0.09688   0.99749 
C          C       0.95405   0.90312   0.49749 
C          C       0.06746   0.91473   0.49982 
C          C       0.93254   0.08527   0.99982 
C          C       0.06746   0.08527   0.99982 
C          C       0.93254   0.91473   0.49982 
C          C       0.04595   0.96698   0.49447 
C          C       0.95405   0.03302   0.99447 
C          C       0.04595   0.03302   0.99447 
C          C       0.95405   0.96698   0.49447 
C          C       0.06746   0.95561   0.49790 
C          C       0.93254   0.04439   0.99790 
C          C       0.06746   0.04439   0.99790 
C          C       0.93254   0.95561   0.49790 
C          C       0.67217   0.43701   0.65387 
C          C       0.32783   0.56299   0.15387 
C          C       0.67217   0.56299   0.15387 
C          C       0.32783   0.43701   0.65387 
C          C       0.66557   0.46028   0.62084 
C          C       0.33443   0.53972   0.12084 
C          C       0.66557   0.53972   0.12084 
C          C       0.33443   0.46028   0.62084 
C          C       0.69034   0.41232   0.65014 
C          C       0.30966   0.58768   0.15014 
C          C       0.69034   0.58768   0.15014 
C          C       0.30966   0.41232   0.65014 
C          C       0.70155   0.41024   0.61334 
C          C       0.29845   0.58976   0.11334 
C          C       0.70155   0.58976   0.11334 
C          C       0.29845   0.41024   0.61334 
C          C       0.67693   0.45858   0.58432 
C          C       0.32307   0.54142   0.08432 
C          C       0.67693   0.54142   0.08432 
C          C       0.32307   0.45858   0.58432 
C          C       0.69487   0.43319   0.58000 
C          C       0.30513   0.56681   0.08000 
C          C       0.69487   0.56681   0.08000 
C          C       0.30513   0.43319   0.58000 
C          C       0.65975   0.43711   0.69173 
C          C       0.34025   0.56289   0.19173 
C          C       0.65975   0.56289   0.19173 
C          C       0.34025   0.43711   0.69173 
C          C       0.70621   0.42983   0.54025 
C          C       0.29379   0.57017   0.04025 
C          C       0.70621   0.57017   0.04025 
C          C       0.29379   0.42983   0.54025 
C          C       0.72902   0.43368   0.53792 
C          C       0.27098   0.56632   0.03792 
C          C       0.72902   0.56632   0.03792 
C          C       0.27098   0.43368   0.53792 
C          C       0.73972   0.43004   0.50035 
C          C       0.26028   0.56996   0.00035 
C          C       0.73972   0.56996   0.00035 
C          C       0.26028   0.43004   0.50035 
C          C       0.72768   0.42342   0.46471 
C          C       0.27232   0.57658   0.96471 
C          C       0.72768   0.57658   0.96471 
C          C       0.27232   0.42342   0.46471 
C          C       0.70490   0.41988   0.46648 
C          C       0.29510   0.58012   0.96648 
C          C       0.70490   0.58012   0.96648 
C          C       0.29510   0.41988   0.46648 
C          C       0.69424   0.42261   0.50433 
C          C       0.30576   0.57739   0.00433 
C          C       0.69424   0.57739   0.00433 
C          C       0.30576   0.42261   0.50433 
C          C       0.76383   0.43253   0.49852 
C          C       0.23617   0.56747   0.99852 
C          C       0.76383   0.56747   0.99852 
C          C       0.23617   0.43253   0.49852 
C          C       0.77414   0.46997   0.49560 
C          C       0.22586   0.53003   0.99560 
C          C       0.77414   0.53003   0.99560 
C          C       0.22586   0.46997   0.49560 
C          C       0.79698   0.47242   0.49560 
C          C       0.20302   0.52758   0.99560 
C          C       0.79698   0.52758   0.99560 
C          C       0.20302   0.47242   0.49560 
C          C       0.80946   0.43716   0.49798 
C          C       0.19054   0.56284   0.99798 
C          C       0.80946   0.56284   0.99798 
C          C       0.19054   0.43716   0.49798 
C          C       0.79919   0.39961   0.50088 
C          C       0.20081   0.60039   0.00088 
C          C       0.79919   0.60039   0.00088 
C          C       0.20081   0.39961   0.50088 
C          C       0.77635   0.39742   0.50110 
C          C       0.22365   0.60258   0.00110 
C          C       0.77635   0.60258   0.00110 
C          C       0.22365   0.39742   0.50110 
C          C       0.80794   0.51173   0.49398 
C          C       0.19206   0.48827   0.99398 
C          C       0.80794   0.48827   0.99398 
C          C       0.19206   0.51173   0.49398 
C          C       0.82030   0.52448   0.52708 
C          C       0.17970   0.47552   0.02708 
C          C       0.82030   0.47552   0.02708 
C          C       0.17970   0.52448   0.52708 
C          C       0.83216   0.56252   0.52529 
C          C       0.16784   0.43748   0.02529 
C          C       0.83216   0.43748   0.02529 
C          C       0.16784   0.56252   0.52529 
C          C       0.83091   0.58582   0.49036 
C          C       0.16909   0.41418   0.99036 
C          C       0.83091   0.41418   0.99036 
C          C       0.16909   0.58582   0.49036 
C          C       0.81747   0.57176   0.45629 
C          C       0.18253   0.42824   0.95629 
C          C       0.81747   0.42824   0.95629 
C          C       0.18253   0.57176   0.45629 
C          C       0.80652   0.53537   0.45906 
C          C       0.19348   0.46463   0.95906 
C          C       0.80652   0.46463   0.95906 
C          C       0.19348   0.53537   0.45906 
C          C       0.84357   0.62266   0.48627 
C          C       0.15643   0.37734   0.98627 
C          C       0.84357   0.37734   0.98627 
C          C       0.15643   0.62266   0.48627 
C          C       0.69211   0.41414   0.42880 
C          C       0.30789   0.58586   0.92880 
C          C       0.69211   0.58586   0.92880 
C          C       0.30789   0.41414   0.42880 
C          C       0.69244   0.44332   0.39838 
C          C       0.30756   0.55668   0.89838 
C          C       0.69244   0.55668   0.89838 
C          C       0.30756   0.44332   0.39838 
C          C       0.67937   0.43925   0.36403 
C          C       0.32063   0.56075   0.86403 
C          C       0.67937   0.56075   0.86403 
C          C       0.32063   0.43925   0.36403 
C          C       0.66577   0.40596   0.35982 
C          C       0.33423   0.59404   0.85982 
C          C       0.66577   0.59404   0.85982 
C          C       0.33423   0.40596   0.35982 
C          C       0.66559   0.37662   0.38990 
C          C       0.33441   0.62338   0.88990 
C          C       0.66559   0.62338   0.88990 
C          C       0.33441   0.37662   0.38990 
C          C       0.67873   0.38059   0.42417 
C          C       0.32127   0.61941   0.92417 
C          C       0.67873   0.61941   0.92417 
C          C       0.32127   0.38059   0.42417 
C          C       0.65080   0.40233   0.32552 
C          C       0.34920   0.59767   0.82552 
C          C       0.65080   0.59767   0.82552 
C          C       0.34920   0.40233   0.32552 
C          C       0.81240   0.36284   0.50436 
C          C       0.18760   0.63716   0.00436 
C          C       0.81240   0.63716   0.00436 
C          C       0.18760   0.36284   0.50436 
C          C       0.81210   0.33411   0.47350 
C          C       0.18790   0.66589   0.97350 
C          C       0.81210   0.66589   0.97350 
C          C       0.18790   0.33411   0.47350 
C          C       0.82509   0.30003   0.47647 
C          C       0.17491   0.69997   0.97647 
C          C       0.82509   0.69997   0.97647 
C          C       0.17491   0.30003   0.47647 
C          C       0.83846   0.29441   0.51038 
C          C       0.16154   0.70559   0.01038 
C          C       0.83846   0.70559   0.01038 
C          C       0.16154   0.29441   0.51038 
C          C       0.83864   0.32295   0.54125 
C          C       0.16136   0.67705   0.04125 
C          C       0.83864   0.67705   0.04125 
C          C       0.16136   0.32295   0.54125 
C          C       0.82568   0.35701   0.53830 
C          C       0.17432   0.64299   0.03830 
C          C       0.82568   0.64299   0.03830 
C          C       0.17432   0.35701   0.53830 
C          C       0.85280   0.25972   0.51390 
C          C       0.14720   0.74028   0.01390 
C          C       0.85280   0.74028   0.01390 
C          C       0.14720   0.25972   0.51390 
C          C       0.74207   0.44272   0.57522 
C          C       0.25793   0.55728   0.07522 
C          C       0.74207   0.55728   0.07522 
C          C       0.25793   0.44272   0.57522 
C          C       0.67004   0.41765   0.50626 
C          C       0.32996   0.58235   0.00626 
C          C       0.67004   0.58235   0.00626 
C          C       0.32996   0.41765   0.50626 
C          C       0.73930   0.41921   0.42496 
C          C       0.26070   0.58079   0.92496 
C          C       0.73930   0.58079   0.92496 
C          C       0.26070   0.41921   0.42496 
C          C       0.76526   0.35776   0.50540 
C          C       0.23474   0.64224   0.00540 
C          C       0.76526   0.64224   0.00540 
C          C       0.23474   0.35776   0.50540 
C          C       0.76071   0.50728   0.49364 
C          C       0.23929   0.49272   0.99364 
C          C       0.76071   0.49272   0.99364 
C          C       0.23929   0.50728   0.49364 
C          C       0.83377   0.43948   0.49578 
C          C       0.16623   0.56052   0.99578 
C          C       0.83377   0.56052   0.99578 
C          C       0.16623   0.43948   0.49578 
C          C       0.08593   0.92670   0.95913 
C          C       0.91407   0.07330   0.45913 
C          C       0.08593   0.07330   0.45913 
C          C       0.91407   0.92670   0.95913 
C          C       0.41561   0.54518   0.33068 
C          C       0.58439   0.45482   0.83068 
C          C       0.41561   0.45482   0.83068 
C          C       0.58439   0.54518   0.33068 
C          C       0.43612   0.56282   0.32751 
C          C       0.56388   0.43718   0.82751 
C          C       0.43612   0.43718   0.82751 
C          C       0.56388   0.56282   0.32751 
C          C       0.40962   0.52682   0.36723 
C          C       0.59038   0.47318   0.86723 
C          C       0.40962   0.47318   0.86723 
C          C       0.59038   0.52682   0.36723 
C          C       0.44483   0.54300   0.39643 
C          C       0.55517   0.45700   0.89643 
C          C       0.44483   0.45700   0.89643 
C          C       0.55517   0.54300   0.39643 
C          C       0.39471   0.57132   0.69961 
C          C       0.60529   0.42868   0.19961 
C          C       0.39471   0.42868   0.19961 
C          C       0.60529   0.57132   0.69961 
C          C       0.41135   0.56852   0.66734 
C          C       0.58865   0.43148   0.16734 
C          C       0.41135   0.43148   0.16734 
C          C       0.58865   0.56852   0.66734 
C          C       0.42905   0.59488   0.66668 
C          C       0.57095   0.40512   0.16668 
C          C       0.42905   0.40512   0.16668 
C          C       0.57095   0.59488   0.66668 
C          C       0.44502   0.59162   0.63683 
C          C       0.55498   0.40838   0.13683 
C          C       0.44502   0.40838   0.13683 
C          C       0.55498   0.59162   0.63683 
C          C       0.42598   0.53545   0.60767 
C          C       0.57402   0.46455   0.10767 
C          C       0.42598   0.46455   0.10767 
C          C       0.57402   0.53545   0.60767 
C          C       0.40999   0.53881   0.63746 
C          C       0.59001   0.46119   0.13746 
C          C       0.40999   0.46119   0.13746 
C          C       0.59001   0.53881   0.63746 
C          C       0.08715   0.10049   0.49144 
C          C       0.91285   0.89951   0.99144 
C          C       0.08715   0.89951   0.99144 
C          C       0.91285   0.10049   0.49144 
C          C       0.10290   0.13391   0.49073 
C          C       0.89710   0.86609   0.99073 
C          C       0.10290   0.86609   0.99073 
C          C       0.89710   0.13391   0.49073 
C          C       0.10361   0.16145   0.52275 
C          C       0.89639   0.83855   0.02275 
C          C       0.10361   0.83855   0.02275 
C          C       0.89639   0.16145   0.52275 
C          C       0.11791   0.19371   0.52166 
C          C       0.88209   0.80629   0.02166 
C          C       0.11791   0.80629   0.02166 
C          C       0.88209   0.19371   0.52166 
C          C       0.13131   0.17157   0.45659 
C          C       0.86869   0.82843   0.95659 
C          C       0.13131   0.82843   0.95659 
C          C       0.86869   0.17157   0.45659 
C          C       0.11697   0.13925   0.45769 
C          C       0.88303   0.86075   0.95769 
C          C       0.11697   0.86075   0.95769 
C          C       0.88303   0.13925   0.45769 
C          C       0.08695   0.76963   0.50689 
C          C       0.91305   0.23037   0.00689 
C          C       0.08695   0.23037   0.00689 
C          C       0.91305   0.76963   0.50689 
C          C       0.10249   0.73595   0.50920 
C          C       0.89751   0.26405   0.00920 
C          C       0.10249   0.26405   0.00920 
C          C       0.89751   0.73595   0.50920 
C          C       0.10374   0.71248   0.54436 
C          C       0.89626   0.28752   0.04436 
C          C       0.10374   0.28752   0.04436 
C          C       0.89626   0.71248   0.54436 
C          C       0.11770   0.67973   0.54621 
C          C       0.88230   0.32027   0.04621 
C          C       0.11770   0.32027   0.04621 
C          C       0.88230   0.67973   0.54621 
C          C       0.12969   0.69329   0.47782 
C          C       0.87031   0.30671   0.97782 
C          C       0.12969   0.30671   0.97782 
C          C       0.87031   0.69329   0.47782 
C          C       0.11570   0.72610   0.47599 
C          C       0.88430   0.27390   0.97599 
C          C       0.11570   0.27390   0.97599 
C          C       0.88430   0.72610   0.47599 
C          C       0.54953   0.56198   0.36005 
C          C       0.45047   0.43802   0.86005 
C          C       0.54953   0.43802   0.86005 
C          C       0.45047   0.56198   0.36005 
C          C       0.57582   0.52556   0.39981 
C          C       0.42418   0.47444   0.89981 
C          C       0.57582   0.47444   0.89981 
C          C       0.42418   0.52556   0.39981 
N          N       0.50000   0.54147   0.44364 
N          N       0.50000   0.45853   0.94364 
N          N       0.50000   0.55650   0.56305 
N          N       0.50000   0.44350   0.06305 
N          N       0.00000   0.87549   0.49786 
N          N       0.00000   0.12451   0.99786 
N          N       0.00000   0.99453   0.49225 
N          N       0.00000   0.00547   0.99225 
H          H       0.72772   0.41436   0.40132 
H          H       0.27228   0.58564   0.90132 
H          H       0.72772   0.58564   0.90132 
H          H       0.27228   0.41436   0.40132 
H          H       0.75019   0.39440   0.42641 
H          H       0.24981   0.60560   0.92641 
H          H       0.75019   0.60560   0.92641 
H          H       0.24981   0.39440   0.42641 
H          H       0.74827   0.44587   0.41883 
H          H       0.25173   0.55413   0.91883 
H          H       0.74827   0.55413   0.91883 
H          H       0.25173   0.44587   0.41883 
H          H       0.75889   0.44448   0.56743 
H          H       0.24111   0.55552   0.06743 
H          H       0.75889   0.55552   0.06743 
H          H       0.24111   0.44448   0.56743 
H          H       0.73972   0.41953   0.59706 
H          H       0.26028   0.58047   0.09706 
H          H       0.73972   0.58047   0.09706 
H          H       0.26028   0.41953   0.59706 
H          H       0.73690   0.47059   0.58775 
H          H       0.26310   0.52941   0.08775 
H          H       0.73690   0.52941   0.08775 
H          H       0.26310   0.47059   0.58775 
H          H       0.66385   0.41246   0.47644 
H          H       0.33615   0.58754   0.97644 
H          H       0.66385   0.58754   0.97644 
H          H       0.33615   0.41246   0.47644 
H          H       0.66289   0.44415   0.51844 
H          H       0.33711   0.55585   0.01844 
H          H       0.66289   0.55585   0.01844 
H          H       0.33711   0.44415   0.51844 
H          H       0.66615   0.39280   0.52528 
H          H       0.33385   0.60720   0.02528 
H          H       0.66615   0.60720   0.02528 
H          H       0.33385   0.39280   0.52528 
H          H       0.67209   0.47615   0.56029 
H          H       0.32791   0.52385   0.06029 
H          H       0.67209   0.52385   0.06029 
H          H       0.32791   0.47615   0.56029 
H          H       0.65225   0.47875   0.62353 
H          H       0.34775   0.52125   0.12353 
H          H       0.65225   0.52125   0.12353 
H          H       0.34775   0.47875   0.62353 
H          H       0.69549   0.39560   0.67457 
H          H       0.30451   0.60440   0.17457 
H          H       0.69549   0.60440   0.17457 
H          H       0.30451   0.39560   0.67457 
H          H       0.71484   0.39169   0.61068 
H          H       0.28516   0.60831   0.11068 
H          H       0.71484   0.60831   0.11068 
H          H       0.28516   0.39169   0.61068 
H          H       0.67859   0.35873   0.44618 
H          H       0.32141   0.64127   0.94618 
H          H       0.67859   0.64127   0.94618 
H          H       0.32141   0.35873   0.44618 
H          H       0.65572   0.35194   0.38680 
H          H       0.34428   0.64806   0.88680 
H          H       0.65572   0.64806   0.88680 
H          H       0.34428   0.35194   0.38680 
H          H       0.70238   0.46792   0.40136 
H          H       0.29762   0.53208   0.90136 
H          H       0.70238   0.53208   0.90136 
H          H       0.29762   0.46792   0.40136 
H          H       0.67973   0.46080   0.34171 
H          H       0.32027   0.53920   0.84171 
H          H       0.67973   0.53920   0.84171 
H          H       0.32027   0.46080   0.34171 
H          H       0.84132   0.57189   0.54966 
H          H       0.15868   0.42811   0.04966 
H          H       0.84132   0.42811   0.04966 
H          H       0.15868   0.57189   0.54966 
H          H       0.82110   0.50712   0.55286 
H          H       0.17890   0.49288   0.05286 
H          H       0.82110   0.49288   0.05286 
H          H       0.17890   0.50712   0.55286 
H          H       0.81615   0.58881   0.43037 
H          H       0.18385   0.41119   0.93037 
H          H       0.81615   0.41119   0.93037 
H          H       0.18385   0.58881   0.43037 
H          H       0.79722   0.52573   0.43497 
H          H       0.20278   0.47427   0.93497 
H          H       0.79722   0.47427   0.93497 
H          H       0.20278   0.52573   0.43497 
H          H       0.77116   0.53268   0.49152 
H          H       0.22884   0.46732   0.99152 
H          H       0.77116   0.46732   0.99152 
H          H       0.22884   0.53268   0.49152 
H          H       0.75100   0.50959   0.52041 
H          H       0.24900   0.49041   0.02041 
H          H       0.75100   0.49041   0.02041 
H          H       0.24900   0.50959   0.52041 
H          H       0.75039   0.50616   0.46760 
H          H       0.24961   0.49384   0.96760 
H          H       0.75039   0.49384   0.96760 
H          H       0.24961   0.50616   0.46760 
H          H       0.83865   0.47005   0.49372 
H          H       0.16135   0.52995   0.99372 
H          H       0.83865   0.52995   0.99372 
H          H       0.16135   0.47005   0.49372 
H          H       0.83934   0.42364   0.46963 
H          H       0.16066   0.57636   0.96963 
H          H       0.83934   0.57636   0.96963 
H          H       0.16066   0.42364   0.46963 
H          H       0.84063   0.42640   0.52243 
H          H       0.15937   0.57360   0.02243 
H          H       0.84063   0.57360   0.02243 
H          H       0.15937   0.42640   0.52243 
H          H       0.74806   0.36197   0.50493 
H          H       0.25194   0.63803   0.00493 
H          H       0.74806   0.63803   0.00493 
H          H       0.25194   0.36197   0.50493 
H          H       0.76990   0.34430   0.53348 
H          H       0.23010   0.65570   0.03348 
H          H       0.76990   0.65570   0.03348 
H          H       0.23010   0.34430   0.53348 
H          H       0.76992   0.33875   0.48085 
H          H       0.23008   0.66125   0.98085 
H          H       0.76992   0.66125   0.98085 
H          H       0.23008   0.33875   0.48085 
H          H       0.80227   0.33812   0.44853 
H          H       0.19773   0.66188   0.94853 
H          H       0.80227   0.66188   0.94853 
H          H       0.19773   0.33812   0.44853 
H          H       0.82484   0.27897   0.45367 
H          H       0.17516   0.72103   0.95367 
H          H       0.82484   0.72103   0.95367 
H          H       0.17516   0.27897   0.45367 
H          H       0.84839   0.31884   0.56632 
H          H       0.15161   0.68116   0.06632 
H          H       0.84839   0.68116   0.06632 
H          H       0.15161   0.31884   0.56632 
H          H       0.82589   0.37796   0.56121 
H          H       0.17411   0.62204   0.06121 
H          H       0.82589   0.62204   0.06121 
H          H       0.17411   0.37796   0.56121 
H          H       0.45790   0.61129   0.63662 
H          H       0.54210   0.38871   0.13662 
H          H       0.45790   0.38871   0.13662 
H          H       0.54210   0.61129   0.63662 
H          H       0.43027   0.61687   0.68845 
H          H       0.56973   0.38313   0.18845 
H          H       0.43027   0.38313   0.18845 
H          H       0.56973   0.61687   0.68845 
H          H       0.42478   0.51345   0.58591 
H          H       0.57522   0.48655   0.08591 
H          H       0.42478   0.48655   0.08591 
H          H       0.57522   0.51345   0.58591 
H          H       0.39705   0.51927   0.63751 
H          H       0.60295   0.48073   0.13751 
H          H       0.39705   0.48073   0.13751 
H          H       0.60295   0.51927   0.63751 
H          H       0.37171   0.54717   0.32921 
H          H       0.62829   0.45283   0.82921 
H          H       0.37171   0.45283   0.82921 
H          H       0.62829   0.54717   0.32921 
H          H       0.34806   0.55099   0.27044 
H          H       0.65194   0.44901   0.77044 
H          H       0.34806   0.44901   0.77044 
H          H       0.65194   0.55099   0.27044 
H          H       0.37367   0.52827   0.67415 
H          H       0.62633   0.47173   0.17415 
H          H       0.37367   0.47173   0.17415 
H          H       0.62633   0.52827   0.67415 
H          H       0.34735   0.53035   0.72854 
H          H       0.65265   0.46965   0.22854 
H          H       0.34735   0.46965   0.22854 
H          H       0.65265   0.53035   0.72854 
H          H       0.13528   0.67917   0.44852 
H          H       0.86472   0.32083   0.94852 
H          H       0.13528   0.32083   0.94852 
H          H       0.86472   0.67917   0.44852 
H          H       0.11068   0.74832   0.45634 
H          H       0.88932   0.25168   0.95634 
H          H       0.11068   0.25168   0.95634 
H          H       0.88932   0.74832   0.45634 
H          H       0.09782   0.72918   0.56703 
H          H       0.90218   0.27082   0.06703 
H          H       0.09782   0.27082   0.06703 
H          H       0.90218   0.72918   0.56703 
H          H       0.11793   0.67272   0.57604 
H          H       0.88207   0.32728   0.07604 
H          H       0.11793   0.32728   0.07604 
H          H       0.88207   0.67272   0.57604 
H          H       0.08901   0.78642   0.44088 
H          H       0.91099   0.21358   0.94088 
H          H       0.08901   0.21358   0.94088 
H          H       0.91099   0.78642   0.44088 
H          H       0.06463   0.84874   0.44475 
H          H       0.93537   0.15126   0.94475 
H          H       0.06463   0.15126   0.94475 
H          H       0.93537   0.84874   0.44475 
H          H       0.48185   0.51091   0.36116 
H          H       0.51815   0.48909   0.86116 
H          H       0.48185   0.48909   0.86116 
H          H       0.51815   0.51091   0.36116 
H          H       0.57969   0.56444   0.46782 
H          H       0.42031   0.43556   0.96782 
H          H       0.57969   0.43556   0.96782 
H          H       0.42031   0.56444   0.46782 
H          H       0.57946   0.57281   0.54400 
H          H       0.42054   0.42719   0.04400 
H          H       0.57946   0.42719   0.04400 
H          H       0.42054   0.57281   0.54400 
H          H       0.58068   0.52893   0.42323 
H          H       0.41932   0.47107   0.92323 
H          H       0.58068   0.47107   0.92323 
H          H       0.41932   0.52893   0.42323 
H          H       0.53520   0.55829   0.34662 
H          H       0.46480   0.44171   0.84662 
H          H       0.53520   0.44171   0.84662 
H          H       0.46480   0.55829   0.34662 
H          H       0.48247   0.55125   0.65376 
H          H       0.51753   0.44875   0.15376 
H          H       0.48247   0.44875   0.15376 
H          H       0.51753   0.55125   0.65376 
H          H       0.66645   0.41480   0.71596 
H          H       0.33355   0.58520   0.21596 
H          H       0.66645   0.58520   0.21596 
H          H       0.33355   0.41480   0.71596 
H          H       0.42266   0.44754   0.74919 
H          H       0.57734   0.55246   0.24919 
H          H       0.42266   0.55246   0.24919 
H          H       0.57734   0.44754   0.74919 
H          H       0.40711   0.44502   0.70465 
H          H       0.59289   0.55498   0.20465 
H          H       0.40711   0.55498   0.20465 
H          H       0.59289   0.44502   0.70465 
H          H       0.44300   0.57119   0.30136 
H          H       0.55700   0.42881   0.80136 
H          H       0.44300   0.42881   0.80136 
H          H       0.55700   0.57119   0.30136 
H          H       0.39390   0.51903   0.36729 
H          H       0.60610   0.48097   0.86729 
H          H       0.39390   0.48097   0.86729 
H          H       0.60610   0.51903   0.36729 
H          H       0.40835   0.38369   0.23687 
H          H       0.59165   0.61631   0.73687 
H          H       0.40835   0.61631   0.73687 
H          H       0.59165   0.38369   0.23687 
H          H       0.38463   0.39341   0.28799 
H          H       0.61537   0.60659   0.78799 
H          H       0.38463   0.60659   0.78799 
H          H       0.61537   0.39341   0.28799 
H          H       0.11798   0.11845   0.43759 
H          H       0.88202   0.88155   0.93759 
H          H       0.11798   0.88155   0.93759 
H          H       0.88202   0.11845   0.43759 
H          H       0.13756   0.16882   0.43090 
H          H       0.86244   0.83118   0.93090 
H          H       0.13756   0.83118   0.93090 
H          H       0.86244   0.16882   0.43090 
H          H       0.09507   0.15262   0.54801 
H          H       0.90493   0.84738   0.04801 
H          H       0.09507   0.84738   0.04801 
H          H       0.90493   0.15262   0.54801 
H          H       0.11361   0.20850   0.54946 
H          H       0.88639   0.79150   0.04946 
H          H       0.11361   0.79150   0.04946 
H          H       0.88639   0.20850   0.54946 
H          H       0.05275   0.17915   0.06419 
H          H       0.94725   0.82085   0.56419 
H          H       0.05275   0.82085   0.56419 
H          H       0.94725   0.17915   0.06419 
H          H       0.07177   0.23177   0.06453 
H          H       0.92823   0.76823   0.56453 
H          H       0.07177   0.76823   0.56453 
H          H       0.92823   0.23177   0.06453 
H          H       0.08843   0.91734   0.92991 
H          H       0.91382   0.07851   0.43308 
H          H       0.08618   0.07851   0.43308 
H          H       0.91382   0.92149   0.93308 
H          H       0.08211   0.97439   0.49776 
H          H       0.91789   0.02561   0.99776 
H          H       0.08211   0.02561   0.99776 
H          H       0.91789   0.97439   0.49776 
H          H       0.07679   0.89819   0.50001 
H          H       0.07679   0.10181   0.00001 
H          H       0.92321   0.89819   0.50001 
H          H       0.98406   0.07329   0.99423 
H          H       0.01594   0.92671   0.49423 
H          H       0.98406   0.92671   0.49423 
H          H       0.01594   0.07329   0.99423 
H          H       0.98701   0.22002   0.99727 
H          H       0.01299   0.77998   0.49727 
H          H       0.98701   0.77998   0.49727 
H          H       0.01299   0.22002   0.99727 
H          H       0.50207   0.54192   0.46644 
H          H       0.50296   0.55479   0.52917 
H          H       0.50221   0.45906   0.96934 
H          H       0.49977   0.44226   0.02704 
H          H       0.35865   0.62610   0.82049 
H          H       0.64005   0.61487   0.82500 
H          H       0.64185   0.39153   0.34594 
H          H       0.36380   0.39708   0.33835 
H          H       0.16473   0.65547   0.47046 
H          H       0.06565   0.01847   0.43610 
H          H       0.07316   0.11358   0.54677 
H          H       0.04371   0.06542   0.54942 
H          H       0.13595   0.25849   0.53284 
H          H       0.86407   0.25448   0.53492 
H          H       0.93258   0.02269   0.43646 
H          H       0.93131   0.10290   0.54532 
H          H       0.95357   0.06428   0.55099 
H          H       0.85240   0.64438   0.45772 
H          H       0.99154   0.08898   0.48385 
H          H       0.00918   0.09557   0.48578 
H          H       0.92146   0.09773   0.00743 
H          H       0.98695   0.91492   0.98818 
H          H       0.00957   0.91121   0.98273 
H          H       0.07157   0.98606   0.93923 
H          H       0.04389   0.93260   0.05184 
H          H       0.06711   0.88711   0.04932 
H          H       0.13166   0.74552   0.03901 
H          H       0.16010   0.35597   0.96494 
H          H       0.84296   0.36513   0.96076 
H          H       0.91796   0.90991   0.05285 
H          H       0.94430   0.95750   0.04084 
H          H       0.85024   0.75556   0.03413 
H          H       0.93119   0.96723   0.93214 
