data_crystal

_cell_length_a    70.21000
_cell_length_b    70.21000
_cell_length_c    6.49000
_cell_angle_alpha 90.00000
_cell_angle_beta  90.00000
_cell_angle_gamma 120.00000

_space_group_name_Hall 'P 1'
_space_group_name_H-M_alt  'P 1'

loop_
_symmetry_equiv_pos_as_xyz
'x,y,z' 

loop_
_atom_site_label
_atom_site_type_symbol
_atom_site_fract_x
_atom_site_fract_y
_atom_site_fract_z
C          C       0.54537   0.12346   0.25000 
C          C       0.87654   0.42191   0.25000 
C          C       0.57809   0.45463   0.25000 
C          C       0.45463   0.87654   0.75000 
C          C       0.12346   0.57809   0.75000 
C          C       0.42191   0.54537   0.75000 
C          C       0.54774   0.10525   0.25000 
C          C       0.89475   0.44249   0.25000 
C          C       0.55751   0.45226   0.25000 
C          C       0.45226   0.89475   0.75000 
C          C       0.10525   0.55751   0.75000 
C          C       0.44249   0.54774   0.75000 
C          C       0.58616   0.14685   0.25000 
C          C       0.85315   0.43931   0.25000 
C          C       0.56069   0.41384   0.25000 
C          C       0.41384   0.85315   0.75000 
C          C       0.14685   0.56069   0.75000 
C          C       0.43931   0.58616   0.75000 
N          N       0.56471   0.08515   0.25000 
N          N       0.91485   0.47956   0.25000 
N          N       0.52044   0.43529   0.25000 
N          N       0.43529   0.91485   0.75000 
N          N       0.08515   0.52044   0.75000 
N          N       0.47956   0.56471   0.75000 
C          C       0.54699   0.03796   0.25000 
C          C       0.96204   0.50903   0.25000 
C          C       0.49097   0.45301   0.25000 
C          C       0.45301   0.96204   0.75000 
C          C       0.03796   0.49097   0.75000 
C          C       0.50903   0.54699   0.75000 
C          C       0.53810   0.01495   0.25000 
C          C       0.98505   0.52315   0.25000 
C          C       0.47685   0.46190   0.25000 
C          C       0.46190   0.98505   0.75000 
C          C       0.01495   0.47685   0.75000 
C          C       0.52315   0.53810   0.75000 
C          C       0.55450   0.16324   0.25000 
C          C       0.83676   0.39126   0.25000 
C          C       0.60874   0.44550   0.25000 
C          C       0.44550   0.83676   0.75000 
C          C       0.16324   0.60874   0.75000 
C          C       0.39126   0.55450   0.75000 
C          C       0.47577   0.99607   0.25000 
C          C       0.00393   0.47970   0.25000 
C          C       0.52030   0.52423   0.25000 
C          C       0.52423   0.00393   0.75000 
C          C       0.99607   0.52030   0.75000 
C          C       0.47970   0.47577   0.75000 
C          C       0.56616   0.18706   0.25000 
C          C       0.81294   0.37910   0.25000 
C          C       0.62090   0.43384   0.25000 
C          C       0.43384   0.81294   0.75000 
C          C       0.18706   0.62090   0.75000 
C          C       0.37910   0.56616   0.75000 
C          C       0.55631   0.20007   0.25000 
C          C       0.79993   0.35624   0.25000 
C          C       0.64376   0.44369   0.25000 
C          C       0.44369   0.79993   0.75000 
C          C       0.20007   0.64376   0.75000 
C          C       0.35624   0.55631   0.75000 
C          C       0.53373   0.19111   0.25000 
C          C       0.80889   0.34262   0.25000 
C          C       0.65738   0.46627   0.25000 
C          C       0.46627   0.80889   0.75000 
C          C       0.19111   0.65738   0.75000 
C          C       0.34262   0.53373   0.75000 
C          C       0.52103   0.16845   0.25000 
C          C       0.83155   0.35258   0.25000 
C          C       0.64742   0.47897   0.25000 
C          C       0.47897   0.83155   0.75000 
C          C       0.16845   0.64742   0.75000 
C          C       0.35258   0.52103   0.75000 
C          C       0.53087   0.15519   0.25000 
C          C       0.84481   0.37568   0.25000 
C          C       0.62432   0.46913   0.25000 
C          C       0.46913   0.84481   0.75000 
C          C       0.15519   0.62432   0.75000 
C          C       0.37568   0.53087   0.75000 
C          C       0.57617   0.01805   0.25000 
C          C       0.98195   0.55812   0.25000 
C          C       0.44188   0.42383   0.25000 
C          C       0.42383   0.98195   0.75000 
C          C       0.01805   0.44188   0.75000 
C          C       0.55812   0.57617   0.75000 
C          C       0.58968   0.00870   0.25000 
C          C       0.99130   0.58098   0.25000 
C          C       0.41902   0.41032   0.25000 
C          C       0.41032   0.99130   0.75000 
C          C       0.00870   0.41902   0.75000 
C          C       0.58098   0.58968   0.75000 
C          C       0.58059   0.98589   0.25000 
C          C       0.01411   0.59470   0.25000 
C          C       0.40530   0.41941   0.25000 
C          C       0.41941   0.01411   0.75000 
C          C       0.98589   0.40530   0.75000 
C          C       0.59470   0.58059   0.75000 
C          C       0.55768   0.97252   0.25000 
C          C       0.02748   0.58516   0.25000 
C          C       0.41484   0.44232   0.25000 
C          C       0.44232   0.02748   0.75000 
C          C       0.97252   0.41484   0.75000 
C          C       0.58516   0.55768   0.75000 
C          C       0.54410   0.98173   0.25000 
C          C       0.01827   0.56237   0.25000 
C          C       0.43763   0.45590   0.25000 
C          C       0.45590   0.01827   0.75000 
C          C       0.98173   0.43763   0.75000 
C          C       0.56237   0.54410   0.75000 
C          C       0.71436   0.24890   0.25000 
C          C       0.75110   0.46546   0.25000 
C          C       0.53454   0.28564   0.25000 
C          C       0.28564   0.75110   0.75000 
C          C       0.24890   0.53454   0.75000 
C          C       0.46546   0.71436   0.75000 
C          C       0.71452   0.26911   0.25000 
C          C       0.73089   0.44541   0.25000 
C          C       0.55459   0.28548   0.25000 
C          C       0.28548   0.73089   0.75000 
C          C       0.26911   0.55459   0.75000 
C          C       0.44541   0.71452   0.75000 
C          C       0.75471   0.26983   0.25000 
C          C       0.73017   0.48488   0.25000 
C          C       0.51512   0.24529   0.25000 
C          C       0.24529   0.73017   0.75000 
C          C       0.26983   0.51512   0.75000 
C          C       0.48488   0.75471   0.75000 
C          C       0.59829   0.94298   0.25000 
C          C       0.05702   0.65531   0.25000 
C          C       0.34469   0.40171   0.25000 
C          C       0.40171   0.05702   0.75000 
C          C       0.94298   0.34469   0.75000 
C          C       0.65531   0.59829   0.75000 
C          C       0.58576   0.92000   0.25000 
C          C       0.08000   0.66576   0.25000 
C          C       0.33424   0.41424   0.25000 
C          C       0.41424   0.08000   0.75000 
C          C       0.92000   0.33424   0.75000 
C          C       0.66576   0.58576   0.75000 
C          C       0.63153   0.94033   0.25000 
C          C       0.05967   0.69120   0.25000 
C          C       0.30880   0.36847   0.25000 
C          C       0.36847   0.05967   0.75000 
C          C       0.94033   0.30880   0.75000 
C          C       0.69120   0.63153   0.75000 
C          C       0.54352   0.07175   0.25000 
C          C       0.92825   0.47177   0.25000 
C          C       0.52823   0.45648   0.25000 
C          C       0.45648   0.92825   0.75000 
C          C       0.07175   0.52823   0.75000 
C          C       0.47177   0.54352   0.75000 
C          C       0.53355   0.04742   0.25000 
C          C       0.95258   0.48613   0.25000 
C          C       0.51387   0.46645   0.25000 
C          C       0.46645   0.95258   0.75000 
C          C       0.04742   0.51387   0.75000 
C          C       0.48613   0.53355   0.75000 
C          C       0.51486   0.00172   0.25000 
C          C       0.99828   0.51314   0.25000 
C          C       0.48686   0.48514   0.25000 
C          C       0.48514   0.99828   0.75000 
C          C       0.00172   0.48686   0.75000 
C          C       0.51314   0.51486   0.75000 
C          C       0.56713   0.10653   0.25000 
C          C       0.89347   0.46060   0.25000 
C          C       0.53940   0.43287   0.25000 
C          C       0.43287   0.89347   0.75000 
C          C       0.10653   0.53940   0.75000 
C          C       0.46060   0.56713   0.75000 
C          C       0.58610   0.12634   0.25000 
C          C       0.87366   0.45976   0.25000 
C          C       0.54024   0.41390   0.25000 
C          C       0.41390   0.87366   0.75000 
C          C       0.12634   0.54024   0.75000 
C          C       0.45976   0.58610   0.75000 
C          C       0.56360   0.14585   0.25000 
C          C       0.85415   0.41775   0.25000 
C          C       0.58225   0.43640   0.25000 
C          C       0.43640   0.85415   0.75000 
C          C       0.14585   0.58225   0.75000 
C          C       0.41775   0.56360   0.75000 
N          N       0.53105   0.08290   0.25000 
N          N       0.91710   0.44815   0.25000 
N          N       0.55185   0.46895   0.25000 
N          N       0.46895   0.91710   0.75000 
N          N       0.08290   0.55185   0.75000 
N          N       0.44815   0.53105   0.75000 
C          C       0.50071   0.01065   0.25000 
C          C       0.98935   0.49006   0.25000 
C          C       0.50994   0.49929   0.25000 
C          C       0.49929   0.98935   0.75000 
C          C       0.01065   0.50994   0.75000 
C          C       0.49006   0.50071   0.75000 
C          C       0.51070   0.03375   0.25000 
C          C       0.96625   0.47695   0.25000 
C          C       0.52305   0.48930   0.25000 
C          C       0.48930   0.96625   0.75000 
C          C       0.03375   0.52305   0.75000 
C          C       0.47695   0.51070   0.75000 
C          C       0.61042   0.16629   0.25000 
C          C       0.83371   0.44413   0.25000 
C          C       0.55587   0.38958   0.25000 
C          C       0.38958   0.83371   0.75000 
C          C       0.16629   0.55587   0.75000 
C          C       0.44413   0.61042   0.75000 
C          C       0.55289   0.00484   0.25000 
C          C       0.99516   0.54805   0.25000 
C          C       0.45195   0.44711   0.25000 
C          C       0.44711   0.99516   0.75000 
C          C       0.00484   0.45195   0.75000 
C          C       0.54805   0.55289   0.75000 
C          C       0.63029   0.16490   0.25000 
C          C       0.83510   0.46539   0.25000 
C          C       0.53461   0.36971   0.25000 
C          C       0.36971   0.83510   0.75000 
C          C       0.16490   0.53461   0.75000 
C          C       0.46539   0.63029   0.75000 
C          C       0.65147   0.18390   0.25000 
C          C       0.81610   0.46757   0.25000 
C          C       0.53243   0.34853   0.25000 
C          C       0.34853   0.81610   0.75000 
C          C       0.18390   0.53243   0.75000 
C          C       0.46757   0.65147   0.75000 
C          C       0.65360   0.20481   0.25000 
C          C       0.79519   0.44879   0.25000 
C          C       0.55121   0.34640   0.25000 
C          C       0.34640   0.79519   0.75000 
C          C       0.20481   0.55121   0.75000 
C          C       0.44879   0.65360   0.75000 
C          C       0.63452   0.20611   0.25000 
C          C       0.79389   0.42841   0.25000 
C          C       0.57159   0.36548   0.25000 
C          C       0.36548   0.79389   0.75000 
C          C       0.20611   0.57159   0.75000 
C          C       0.42841   0.63452   0.75000 
C          C       0.61421   0.18716   0.25000 
C          C       0.81284   0.42705   0.25000 
C          C       0.57295   0.38579   0.25000 
C          C       0.38579   0.81284   0.75000 
C          C       0.18716   0.57295   0.75000 
C          C       0.42705   0.61421   0.75000 
C          C       0.46540   0.97277   0.25000 
C          C       0.02723   0.49263   0.25000 
C          C       0.50737   0.53460   0.25000 
C          C       0.53460   0.02723   0.75000 
C          C       0.97277   0.50737   0.75000 
C          C       0.49263   0.46540   0.75000 
C          C       0.44250   0.95954   0.25000 
C          C       0.04046   0.48296   0.25000 
C          C       0.51704   0.55750   0.25000 
C          C       0.55750   0.04046   0.75000 
C          C       0.95954   0.51704   0.75000 
C          C       0.48296   0.44250   0.75000 
C          C       0.42905   0.96894   0.25000 
C          C       0.03106   0.46011   0.25000 
C          C       0.53989   0.57095   0.25000 
C          C       0.57095   0.03106   0.75000 
C          C       0.96894   0.53989   0.75000 
C          C       0.46011   0.42905   0.75000 
C          C       0.43886   0.99186   0.25000 
C          C       0.00814   0.44700   0.25000 
C          C       0.55300   0.56114   0.25000 
C          C       0.56114   0.00814   0.75000 
C          C       0.99186   0.55300   0.75000 
C          C       0.44700   0.43886   0.75000 
C          C       0.46170   0.00516   0.25000 
C          C       0.99484   0.45654   0.25000 
C          C       0.54346   0.53830   0.25000 
C          C       0.53830   0.99484   0.75000 
C          C       0.00516   0.54346   0.75000 
C          C       0.45654   0.46170   0.75000 
C          C       0.73411   0.28892   0.25000 
C          C       0.71108   0.44519   0.25000 
C          C       0.55481   0.26589   0.25000 
C          C       0.26589   0.71108   0.75000 
C          C       0.28892   0.55481   0.75000 
C          C       0.44519   0.73411   0.75000 
C          C       0.75422   0.28960   0.25000 
C          C       0.71040   0.46462   0.25000 
C          C       0.53538   0.24578   0.25000 
C          C       0.24578   0.71040   0.75000 
C          C       0.28960   0.53538   0.75000 
C          C       0.46462   0.75422   0.75000 
C          C       0.73477   0.24956   0.25000 
C          C       0.75044   0.48521   0.25000 
C          C       0.51479   0.26523   0.25000 
C          C       0.26523   0.75044   0.75000 
C          C       0.24956   0.51479   0.75000 
C          C       0.48521   0.73477   0.75000 
C          C       0.59589   0.90720   0.25000 
C          C       0.09280   0.68869   0.25000 
C          C       0.31131   0.40411   0.25000 
C          C       0.40411   0.09280   0.75000 
C          C       0.90720   0.31131   0.75000 
C          C       0.68869   0.59589   0.75000 
C          C       0.61900   0.91732   0.25000 
C          C       0.08268   0.70168   0.25000 
C          C       0.29832   0.38100   0.25000 
C          C       0.38100   0.08268   0.75000 
C          C       0.91732   0.29832   0.75000 
C          C       0.70168   0.61900   0.75000 
C          C       0.62140   0.95313   0.25000 
C          C       0.04687   0.66827   0.25000 
C          C       0.33173   0.37860   0.25000 
C          C       0.37860   0.04687   0.75000 
C          C       0.95313   0.33173   0.75000 
C          C       0.66827   0.62140   0.75000 
C          C       0.11556   0.00819   0.25000 
C          C       0.99181   0.10737   0.25000 
C          C       0.89263   0.88444   0.25000 
C          C       0.88444   0.99181   0.75000 
C          C       0.00819   0.89263   0.75000 
C          C       0.10737   0.11556   0.75000 
N          N       0.13312   0.02762   0.25000 
N          N       0.97238   0.10550   0.25000 
N          N       0.89450   0.86688   0.25000 
N          N       0.86688   0.97238   0.75000 
N          N       0.02762   0.89450   0.75000 
N          N       0.10550   0.13312   0.75000 
N          N       0.12899   0.10665   0.25000 
N          N       0.89335   0.02234   0.25000 
N          N       0.97766   0.87101   0.25000 
N          N       0.87101   0.89335   0.75000 
N          N       0.10665   0.97766   0.75000 
N          N       0.02234   0.12899   0.75000 
C          C       0.14265   0.12763   0.25000 
C          C       0.87237   0.01502   0.25000 
C          C       0.98498   0.85735   0.25000 
C          C       0.85735   0.87237   0.75000 
C          C       0.12763   0.98498   0.75000 
C          C       0.01502   0.14265   0.75000 
N          N       0.63048   0.90515   0.25000 
N          N       0.09485   0.72533   0.25000 
N          N       0.27467   0.36952   0.25000 
N          N       0.36952   0.09485   0.75000 
N          N       0.90515   0.27467   0.75000 
N          N       0.72533   0.63048   0.75000 
C          C       0.62192   0.88390   0.25000 
C          C       0.11610   0.73802   0.25000 
C          C       0.26198   0.37808   0.25000 
C          C       0.37808   0.11610   0.75000 
C          C       0.88390   0.26198   0.75000 
C          C       0.73802   0.62192   0.75000 
C          C       0.59511   0.97630   0.25000 
C          C       0.02370   0.61881   0.25000 
C          C       0.38119   0.40489   0.25000 
C          C       0.40489   0.02370   0.75000 
C          C       0.97630   0.38119   0.75000 
C          C       0.61881   0.59511   0.75000 
N          N       0.58674   0.95508   0.25000 
N          N       0.04492   0.63166   0.25000 
N          N       0.36834   0.41326   0.25000 
N          N       0.41326   0.04492   0.75000 
N          N       0.95508   0.36834   0.75000 
N          N       0.63166   0.58674   0.75000 
C          C       0.12104   0.20964   0.25000 
C          C       0.79036   0.91140   0.25000 
C          C       0.08860   0.87896   0.25000 
C          C       0.87896   0.79036   0.75000 
C          C       0.20964   0.08860   0.75000 
C          C       0.91140   0.12104   0.75000 
C          C       0.11867   0.22784   0.25000 
C          C       0.77216   0.89083   0.25000 
C          C       0.10917   0.88133   0.25000 
C          C       0.88133   0.77216   0.75000 
C          C       0.22784   0.10917   0.75000 
C          C       0.89083   0.11867   0.75000 
C          C       0.08027   0.18621   0.25000 
C          C       0.81379   0.89406   0.25000 
C          C       0.10594   0.91973   0.25000 
C          C       0.91973   0.81379   0.75000 
C          C       0.18621   0.10594   0.75000 
C          C       0.89406   0.08027   0.75000 
N          N       0.10172   0.24798   0.25000 
N          N       0.75202   0.85374   0.25000 
N          N       0.14626   0.89828   0.25000 
N          N       0.89828   0.75202   0.75000 
N          N       0.24798   0.14626   0.75000 
N          N       0.85374   0.10172   0.75000 
C          C       0.11966   0.29540   0.25000 
C          C       0.70460   0.82426   0.25000 
C          C       0.17574   0.88034   0.25000 
C          C       0.88034   0.70460   0.75000 
C          C       0.29540   0.17574   0.75000 
C          C       0.82426   0.11966   0.75000 
C          C       0.12872   0.31847   0.25000 
C          C       0.68153   0.81025   0.25000 
C          C       0.18975   0.87128   0.25000 
C          C       0.87128   0.68153   0.75000 
C          C       0.31847   0.18975   0.75000 
C          C       0.81025   0.12872   0.75000 
C          C       0.11201   0.16991   0.25000 
C          C       0.83009   0.94210   0.25000 
C          C       0.05790   0.88799   0.25000 
C          C       0.88799   0.83009   0.75000 
C          C       0.16991   0.05790   0.75000 
C          C       0.94210   0.11201   0.75000 
C          C       0.19101   0.33693   0.25000 
C          C       0.66307   0.85408   0.25000 
C          C       0.14592   0.80899   0.25000 
C          C       0.80899   0.66307   0.75000 
C          C       0.33693   0.14592   0.75000 
C          C       0.85408   0.19101   0.75000 
C          C       0.10042   0.14610   0.25000 
C          C       0.85390   0.95432   0.25000 
C          C       0.04568   0.89958   0.25000 
C          C       0.89958   0.85390   0.75000 
C          C       0.14610   0.04568   0.75000 
C          C       0.95432   0.10042   0.75000 
C          C       0.11036   0.13317   0.25000 
C          C       0.86683   0.97719   0.25000 
C          C       0.02281   0.88964   0.25000 
C          C       0.88964   0.86683   0.75000 
C          C       0.13317   0.02281   0.75000 
C          C       0.97719   0.11036   0.75000 
C          C       0.13297   0.14223   0.25000 
C          C       0.85777   0.99074   0.25000 
C          C       0.00926   0.86703   0.25000 
C          C       0.86703   0.85777   0.75000 
C          C       0.14223   0.00926   0.75000 
C          C       0.99074   0.13297   0.75000 
C          C       0.14558   0.16486   0.25000 
C          C       0.83514   0.98072   0.25000 
C          C       0.01928   0.85442   0.25000 
C          C       0.85442   0.83514   0.75000 
C          C       0.16486   0.01928   0.75000 
C          C       0.98072   0.14558   0.75000 
C          C       0.13565   0.17803   0.25000 
C          C       0.82197   0.95762   0.25000 
C          C       0.04238   0.86435   0.25000 
C          C       0.86435   0.82197   0.75000 
C          C       0.17803   0.04238   0.75000 
C          C       0.95762   0.13565   0.75000 
C          C       0.09081   0.31580   0.25000 
C          C       0.68420   0.77501   0.25000 
C          C       0.22499   0.90919   0.25000 
C          C       0.90919   0.68420   0.75000 
C          C       0.31580   0.22499   0.75000 
C          C       0.77501   0.09081   0.75000 
C          C       0.07745   0.32534   0.25000 
C          C       0.67466   0.75211   0.25000 
C          C       0.24789   0.92255   0.25000 
C          C       0.92255   0.67466   0.75000 
C          C       0.32534   0.24789   0.75000 
C          C       0.75211   0.07745   0.75000 
C          C       0.08669   0.34817   0.25000 
C          C       0.65183   0.73852   0.25000 
C          C       0.26148   0.91331   0.25000 
C          C       0.91331   0.65183   0.75000 
C          C       0.34817   0.26148   0.75000 
C          C       0.73852   0.08669   0.75000 
C          C       0.10961   0.36139   0.25000 
C          C       0.63861   0.74822   0.25000 
C          C       0.25178   0.89039   0.25000 
C          C       0.89039   0.63861   0.75000 
C          C       0.36139   0.25178   0.75000 
C          C       0.74822   0.10961   0.75000 
C          C       0.12305   0.35197   0.25000 
C          C       0.64803   0.77108   0.25000 
C          C       0.22892   0.87695   0.25000 
C          C       0.87695   0.64803   0.75000 
C          C       0.35197   0.22892   0.75000 
C          C       0.77108   0.12305   0.75000 
C          C       0.95205   0.08450   0.25000 
C          C       0.91550   0.86755   0.25000 
C          C       0.13245   0.04795   0.25000 
C          C       0.04795   0.91550   0.75000 
C          C       0.08450   0.13245   0.75000 
C          C       0.86755   0.95205   0.75000 
C          C       0.95187   0.06429   0.25000 
C          C       0.93571   0.88758   0.25000 
C          C       0.11242   0.04813   0.25000 
C          C       0.04813   0.93571   0.75000 
C          C       0.06429   0.11242   0.75000 
C          C       0.88758   0.95187   0.75000 
C          C       0.91171   0.06363   0.25000 
C          C       0.93637   0.84808   0.25000 
C          C       0.15192   0.08829   0.25000 
C          C       0.08829   0.93637   0.75000 
C          C       0.06363   0.15192   0.75000 
C          C       0.84808   0.91171   0.75000 
C          C       0.06905   0.39121   0.25000 
C          C       0.60879   0.67784   0.25000 
C          C       0.32216   0.93095   0.25000 
C          C       0.93095   0.60879   0.75000 
C          C       0.39121   0.32216   0.75000 
C          C       0.67784   0.06905   0.75000 
C          C       0.08155   0.41420   0.25000 
C          C       0.58580   0.66735   0.25000 
C          C       0.33265   0.91845   0.25000 
C          C       0.91845   0.58580   0.75000 
C          C       0.41420   0.33265   0.75000 
C          C       0.66735   0.08155   0.75000 
C          C       0.03577   0.39384   0.25000 
C          C       0.60616   0.64193   0.25000 
C          C       0.35807   0.96423   0.25000 
C          C       0.96423   0.60616   0.75000 
C          C       0.39384   0.35807   0.75000 
C          C       0.64193   0.03577   0.75000 
C          C       0.12293   0.26138   0.25000 
C          C       0.73862   0.86155   0.25000 
C          C       0.13845   0.87707   0.25000 
C          C       0.87707   0.73862   0.75000 
C          C       0.26138   0.13845   0.75000 
C          C       0.86155   0.12293   0.75000 
C          C       0.13299   0.28577   0.25000 
C          C       0.71423   0.84722   0.25000 
C          C       0.15278   0.86701   0.25000 
C          C       0.86701   0.71423   0.75000 
C          C       0.28577   0.15278   0.75000 
C          C       0.84722   0.13299   0.75000 
C          C       0.15199   0.33155   0.25000 
C          C       0.66845   0.82044   0.25000 
C          C       0.17956   0.84801   0.25000 
C          C       0.84801   0.66845   0.75000 
C          C       0.33155   0.17956   0.75000 
C          C       0.82044   0.15199   0.75000 
C          C       0.09928   0.22657   0.25000 
C          C       0.77343   0.87271   0.25000 
C          C       0.12729   0.90072   0.25000 
C          C       0.90072   0.77343   0.75000 
C          C       0.22657   0.12729   0.75000 
C          C       0.87271   0.09928   0.75000 
C          C       0.08032   0.20673   0.25000 
C          C       0.79327   0.87359   0.25000 
C          C       0.12641   0.91968   0.25000 
C          C       0.91968   0.79327   0.75000 
C          C       0.20673   0.12641   0.75000 
C          C       0.87359   0.08032   0.75000 
C          C       0.10283   0.18723   0.25000 
C          C       0.81277   0.91560   0.25000 
C          C       0.08440   0.89717   0.25000 
C          C       0.89717   0.81277   0.75000 
C          C       0.18723   0.08440   0.75000 
C          C       0.91560   0.10283   0.75000 
N          N       0.13536   0.25019   0.25000 
N          N       0.74981   0.88517   0.25000 
N          N       0.11483   0.86464   0.25000 
N          N       0.86464   0.74981   0.75000 
N          N       0.25019   0.11483   0.75000 
N          N       0.88517   0.13536   0.75000 
C          C       0.16602   0.32248   0.25000 
C          C       0.67752   0.84354   0.25000 
C          C       0.15646   0.83398   0.25000 
C          C       0.83398   0.67752   0.75000 
C          C       0.32248   0.15646   0.75000 
C          C       0.84354   0.16602   0.75000 
C          C       0.15587   0.29935   0.25000 
C          C       0.70065   0.85652   0.25000 
C          C       0.14348   0.84413   0.25000 
C          C       0.84413   0.70065   0.75000 
C          C       0.29935   0.14348   0.75000 
C          C       0.85652   0.15587   0.75000 
C          C       0.05602   0.16677   0.25000 
C          C       0.83323   0.88925   0.25000 
C          C       0.11075   0.94398   0.25000 
C          C       0.94398   0.83323   0.75000 
C          C       0.16677   0.11075   0.75000 
C          C       0.88925   0.05602   0.75000 
C          C       0.11410   0.32882   0.25000 
C          C       0.67118   0.78528   0.25000 
C          C       0.21472   0.88590   0.25000 
C          C       0.88590   0.67118   0.75000 
C          C       0.32882   0.21472   0.75000 
C          C       0.78528   0.11410   0.75000 
C          C       0.03618   0.16820   0.25000 
C          C       0.83180   0.86798   0.25000 
C          C       0.13202   0.96382   0.25000 
C          C       0.96382   0.83180   0.75000 
C          C       0.16820   0.13202   0.75000 
C          C       0.86798   0.03618   0.75000 
C          C       0.01499   0.14926   0.25000 
C          C       0.85074   0.86573   0.25000 
C          C       0.13427   0.98501   0.25000 
C          C       0.98501   0.85074   0.75000 
C          C       0.14926   0.13427   0.75000 
C          C       0.86573   0.01499   0.75000 
C          C       0.01281   0.12835   0.25000 
C          C       0.87165   0.88446   0.25000 
C          C       0.11554   0.98719   0.25000 
C          C       0.98719   0.87165   0.75000 
C          C       0.12835   0.11554   0.75000 
C          C       0.88446   0.01281   0.75000 
C          C       0.03185   0.12697   0.25000 
C          C       0.87303   0.90488   0.25000 
C          C       0.09512   0.96815   0.25000 
C          C       0.96815   0.87303   0.75000 
C          C       0.12697   0.09512   0.75000 
C          C       0.90488   0.03185   0.75000 
C          C       0.05218   0.14586   0.25000 
C          C       0.85414   0.90632   0.25000 
C          C       0.09368   0.94782   0.25000 
C          C       0.94782   0.85414   0.75000 
C          C       0.14586   0.09368   0.75000 
C          C       0.90632   0.05218   0.75000 
C          C       0.20153   0.36025   0.25000 
C          C       0.63975   0.84128   0.25000 
C          C       0.15872   0.79847   0.25000 
C          C       0.79847   0.63975   0.75000 
C          C       0.36025   0.15872   0.75000 
C          C       0.84128   0.20153   0.75000 
C          C       0.22444   0.37337   0.25000 
C          C       0.62663   0.85107   0.25000 
C          C       0.14893   0.77556   0.25000 
C          C       0.77556   0.62663   0.75000 
C          C       0.37337   0.14893   0.75000 
C          C       0.85107   0.22444   0.75000 
C          C       0.23781   0.36387   0.25000 
C          C       0.63613   0.87394   0.25000 
C          C       0.12606   0.76219   0.25000 
C          C       0.76219   0.63613   0.75000 
C          C       0.36387   0.12606   0.75000 
C          C       0.87394   0.23781   0.75000 
C          C       0.22786   0.34093   0.25000 
C          C       0.65907   0.88693   0.25000 
C          C       0.11307   0.77214   0.25000 
C          C       0.77214   0.65907   0.75000 
C          C       0.34093   0.11307   0.75000 
C          C       0.88693   0.22786   0.75000 
C          C       0.20499   0.32773   0.25000 
C          C       0.67227   0.87726   0.25000 
C          C       0.12274   0.79501   0.25000 
C          C       0.79501   0.67227   0.75000 
C          C       0.32773   0.12274   0.75000 
C          C       0.87726   0.20499   0.75000 
C          C       0.93229   0.04452   0.25000 
C          C       0.95548   0.88777   0.25000 
C          C       0.11223   0.06771   0.25000 
C          C       0.06771   0.95548   0.75000 
C          C       0.04452   0.11223   0.75000 
C          C       0.88777   0.93229   0.75000 
C          C       0.91222   0.04386   0.25000 
C          C       0.95614   0.86836   0.25000 
C          C       0.13164   0.08778   0.25000 
C          C       0.08778   0.95614   0.75000 
C          C       0.04386   0.13164   0.75000 
C          C       0.86836   0.91222   0.75000 
C          C       0.93166   0.08389   0.25000 
C          C       0.91611   0.84777   0.25000 
C          C       0.15223   0.06834   0.25000 
C          C       0.06834   0.91611   0.75000 
C          C       0.08389   0.15223   0.75000 
C          C       0.84777   0.93166   0.75000 
C          C       0.07140   0.42698   0.25000 
C          C       0.57302   0.64442   0.25000 
C          C       0.35558   0.92860   0.25000 
C          C       0.92860   0.57302   0.75000 
C          C       0.42698   0.35558   0.75000 
C          C       0.64442   0.07140   0.75000 
C          C       0.04829   0.41684   0.25000 
C          C       0.58316   0.63145   0.25000 
C          C       0.36855   0.95171   0.25000 
C          C       0.95171   0.58316   0.75000 
C          C       0.41684   0.36855   0.75000 
C          C       0.63145   0.04829   0.75000 
C          C       0.04593   0.38105   0.25000 
C          C       0.61895   0.66488   0.25000 
C          C       0.33512   0.95407   0.25000 
C          C       0.95407   0.61895   0.75000 
C          C       0.38105   0.33512   0.75000 
C          C       0.66488   0.04593   0.75000 
C          C       0.55129   0.32542   0.25000 
C          C       0.67458   0.22587   0.25000 
C          C       0.77413   0.44871   0.25000 
C          C       0.44871   0.67458   0.75000 
C          C       0.32542   0.77413   0.75000 
C          C       0.22587   0.55129   0.75000 
N          N       0.53380   0.30594   0.25000 
N          N       0.69406   0.22786   0.25000 
N          N       0.77214   0.46620   0.25000 
N          N       0.46620   0.69406   0.75000 
N          N       0.30594   0.77214   0.75000 
N          N       0.22786   0.53380   0.75000 
N          N       0.53796   0.22684   0.25000 
N          N       0.77316   0.31112   0.25000 
N          N       0.68888   0.46204   0.25000 
N          N       0.46204   0.77316   0.75000 
N          N       0.22684   0.68888   0.75000 
N          N       0.31112   0.53796   0.75000 
C          C       0.52420   0.20586   0.25000 
C          C       0.79414   0.31834   0.25000 
C          C       0.68166   0.47580   0.25000 
C          C       0.47580   0.79414   0.75000 
C          C       0.20586   0.68166   0.75000 
C          C       0.31834   0.52420   0.75000 
N          N       0.03679   0.42899   0.25000 
N          N       0.57101   0.60780   0.25000 
N          N       0.39220   0.96321   0.25000 
N          N       0.96321   0.57101   0.75000 
N          N       0.42899   0.39220   0.75000 
N          N       0.60780   0.03679   0.75000 
C          C       0.04533   0.45024   0.25000 
C          C       0.54976   0.59509   0.25000 
C          C       0.40491   0.95467   0.25000 
C          C       0.95467   0.54976   0.75000 
C          C       0.45024   0.40491   0.75000 
C          C       0.59509   0.04533   0.75000 
C          C       0.07225   0.35790   0.25000 
C          C       0.64210   0.71435   0.25000 
C          C       0.28565   0.92775   0.25000 
C          C       0.92775   0.64210   0.75000 
C          C       0.35790   0.28565   0.75000 
C          C       0.71435   0.07225   0.75000 
N          N       0.08063   0.37913   0.25000 
N          N       0.62087   0.70150   0.25000 
N          N       0.29850   0.91937   0.25000 
N          N       0.91937   0.62087   0.75000 
N          N       0.37913   0.29850   0.75000 
N          N       0.70150   0.08063   0.75000 
H          H       0.52838   0.11806   0.25000 
H          H       0.88194   0.41032   0.25000 
H          H       0.58968   0.47162   0.25000 
H          H       0.47162   0.88194   0.75000 
H          H       0.11806   0.58968   0.75000 
H          H       0.41032   0.52838   0.75000 
H          H       0.56444   0.04905   0.25000 
H          H       0.95095   0.51539   0.25000 
H          H       0.48461   0.43556   0.25000 
H          H       0.43556   0.95095   0.75000 
H          H       0.04905   0.48461   0.75000 
H          H       0.51539   0.56444   0.75000 
H          H       0.58271   0.19940   0.25000 
H          H       0.80060   0.38331   0.25000 
H          H       0.61669   0.41729   0.25000 
H          H       0.41729   0.80060   0.75000 
H          H       0.19940   0.61669   0.75000 
H          H       0.38331   0.58271   0.75000 
H          H       0.56687   0.21787   0.25000 
H          H       0.78213   0.34900   0.25000 
H          H       0.65100   0.43313   0.25000 
H          H       0.43313   0.78213   0.75000 
H          H       0.21787   0.65100   0.75000 
H          H       0.34900   0.56687   0.75000 
H          H       0.50325   0.16080   0.25000 
H          H       0.83920   0.34245   0.25000 
H          H       0.65755   0.49675   0.25000 
H          H       0.49675   0.83920   0.75000 
H          H       0.16080   0.65755   0.75000 
H          H       0.34245   0.50325   0.75000 
H          H       0.51799   0.13852   0.25000 
H          H       0.86148   0.37947   0.25000 
H          H       0.62053   0.48201   0.25000 
H          H       0.48201   0.86148   0.75000 
H          H       0.13852   0.62053   0.75000 
H          H       0.37947   0.51799   0.75000 
H          H       0.58464   0.03572   0.25000 
H          H       0.96428   0.54892   0.25000 
H          H       0.45108   0.41536   0.25000 
H          H       0.41536   0.96428   0.75000 
H          H       0.03572   0.45108   0.75000 
H          H       0.54892   0.58464   0.75000 
H          H       0.60738   0.01941   0.25000 
H          H       0.98059   0.58797   0.25000 
H          H       0.41203   0.39262   0.25000 
H          H       0.39262   0.98059   0.75000 
H          H       0.01941   0.41203   0.75000 
H          H       0.58797   0.60738   0.75000 
H          H       0.55011   0.95477   0.25000 
H          H       0.04523   0.59534   0.25000 
H          H       0.40466   0.44989   0.25000 
H          H       0.44989   0.04523   0.75000 
H          H       0.95477   0.40466   0.75000 
H          H       0.59534   0.55011   0.75000 
H          H       0.52677   0.97009   0.25000 
H          H       0.02991   0.55668   0.25000 
H          H       0.44332   0.47323   0.25000 
H          H       0.47323   0.02991   0.75000 
H          H       0.97009   0.44332   0.75000 
H          H       0.55668   0.52677   0.75000 
H          H       0.69991   0.27045   0.25000 
H          H       0.72955   0.42946   0.25000 
H          H       0.57054   0.30009   0.25000 
H          H       0.30009   0.72955   0.75000 
H          H       0.27045   0.57054   0.75000 
H          H       0.42946   0.69991   0.75000 
H          H       0.77020   0.26999   0.25000 
H          H       0.73001   0.50021   0.25000 
H          H       0.49979   0.22980   0.25000 
H          H       0.22980   0.73001   0.75000 
H          H       0.26999   0.49979   0.75000 
H          H       0.50021   0.77020   0.75000 
H          H       0.56798   0.91195   0.25000 
H          H       0.08805   0.65603   0.25000 
H          H       0.34397   0.43202   0.25000 
H          H       0.43202   0.08805   0.75000 
H          H       0.91195   0.34397   0.75000 
H          H       0.65603   0.56798   0.75000 
H          H       0.64932   0.94837   0.25000 
H          H       0.05163   0.70095   0.25000 
H          H       0.29905   0.35068   0.25000 
H          H       0.35068   0.05163   0.75000 
H          H       0.94837   0.29905   0.75000 
H          H       0.70095   0.64932   0.75000 
H          H       0.50770   0.98437   0.25000 
H          H       0.01563   0.52333   0.25000 
H          H       0.47667   0.49230   0.25000 
H          H       0.49230   0.01563   0.75000 
H          H       0.98437   0.47667   0.75000 
H          H       0.52333   0.50770   0.75000 
H          H       0.60029   0.12451   0.25000 
H          H       0.87549   0.47578   0.25000 
H          H       0.52422   0.39971   0.25000 
H          H       0.39971   0.87549   0.75000 
H          H       0.12451   0.52422   0.75000 
H          H       0.47578   0.60029   0.75000 
H          H       0.51410   0.07672   0.25000 
H          H       0.92328   0.43738   0.25000 
H          H       0.56262   0.48590   0.25000 
H          H       0.48590   0.92328   0.75000 
H          H       0.07672   0.56262   0.75000 
H          H       0.43738   0.51410   0.75000 
H          H       0.50097   0.04153   0.25000 
H          H       0.95847   0.45944   0.25000 
H          H       0.54056   0.49903   0.25000 
H          H       0.49903   0.95847   0.75000 
H          H       0.04153   0.54056   0.75000 
H          H       0.45944   0.50097   0.75000 
H          H       0.63075   0.14986   0.25000 
H          H       0.85014   0.48089   0.25000 
H          H       0.51911   0.36925   0.25000 
H          H       0.36925   0.85014   0.75000 
H          H       0.14986   0.51911   0.75000 
H          H       0.48089   0.63075   0.75000 
H          H       0.66597   0.18218   0.25000 
H          H       0.81782   0.48379   0.25000 
H          H       0.51621   0.33403   0.25000 
H          H       0.33403   0.81782   0.75000 
H          H       0.18218   0.51621   0.75000 
H          H       0.48379   0.66597   0.75000 
H          H       0.63512   0.22184   0.25000 
H          H       0.77816   0.41328   0.25000 
H          H       0.58672   0.36488   0.25000 
H          H       0.36488   0.77816   0.75000 
H          H       0.22184   0.58672   0.75000 
H          H       0.41328   0.63512   0.75000 
H          H       0.60084   0.18795   0.25000 
H          H       0.81205   0.41289   0.25000 
H          H       0.58711   0.39916   0.25000 
H          H       0.39916   0.81205   0.75000 
H          H       0.18795   0.58711   0.75000 
H          H       0.41289   0.60084   0.75000 
H          H       0.47434   0.96405   0.25000 
H          H       0.03595   0.51029   0.25000 
H          H       0.48971   0.52566   0.25000 
H          H       0.52566   0.03595   0.75000 
H          H       0.96405   0.48971   0.75000 
H          H       0.51029   0.47434   0.75000 
H          H       0.43528   0.94183   0.25000 
H          H       0.05817   0.49345   0.25000 
H          H       0.50655   0.56472   0.25000 
H          H       0.56472   0.05817   0.75000 
H          H       0.94183   0.50655   0.75000 
H          H       0.49345   0.43528   0.75000 
H          H       0.42889   0.99965   0.25000 
H          H       0.00035   0.42924   0.25000 
H          H       0.57076   0.57111   0.25000 
H          H       0.57111   0.00035   0.75000 
H          H       0.99965   0.57076   0.75000 
H          H       0.42924   0.42889   0.75000 
H          H       0.46759   0.02252   0.25000 
H          H       0.97748   0.44507   0.25000 
H          H       0.55493   0.53241   0.25000 
H          H       0.53241   0.97748   0.75000 
H          H       0.02252   0.55493   0.75000 
H          H       0.44507   0.46759   0.75000 
H          H       0.73363   0.30412   0.25000 
H          H       0.69588   0.42951   0.25000 
H          H       0.57049   0.26637   0.25000 
H          H       0.26637   0.69588   0.75000 
H          H       0.30412   0.57049   0.75000 
H          H       0.42951   0.73363   0.75000 
H          H       0.73521   0.23437   0.25000 
H          H       0.76563   0.50084   0.25000 
H          H       0.49916   0.26479   0.25000 
H          H       0.26479   0.76563   0.75000 
H          H       0.23437   0.49916   0.75000 
H          H       0.50084   0.73521   0.75000 
H          H       0.58543   0.88955   0.25000 
H          H       0.11045   0.69588   0.25000 
H          H       0.30412   0.41457   0.25000 
H          H       0.41457   0.11045   0.75000 
H          H       0.88955   0.30412   0.75000 
H          H       0.69588   0.58543   0.75000 
H          H       0.63180   0.97079   0.25000 
H          H       0.02921   0.66101   0.25000 
H          H       0.33899   0.36820   0.25000 
H          H       0.36820   0.02921   0.75000 
H          H       0.97079   0.33899   0.75000 
H          H       0.66101   0.63180   0.75000 
H          H       0.09943   0.00634   0.25000 
H          H       0.99366   0.09309   0.25000 
H          H       0.90691   0.90057   0.25000 
H          H       0.90057   0.99366   0.75000 
H          H       0.00634   0.90691   0.75000 
H          H       0.09309   0.09943   0.75000 
H          H       0.16026   0.13416   0.25000 
H          H       0.86584   0.02610   0.25000 
H          H       0.97390   0.83974   0.25000 
H          H       0.83974   0.86584   0.75000 
H          H       0.13416   0.97390   0.75000 
H          H       0.02610   0.16026   0.75000 
H          H       0.60432   0.87304   0.25000 
H          H       0.12696   0.73128   0.25000 
H          H       0.26872   0.39568   0.25000 
H          H       0.39568   0.12696   0.75000 
H          H       0.87304   0.26872   0.75000 
H          H       0.73128   0.60432   0.75000 
H          H       0.61270   0.98730   0.25000 
H          H       0.01270   0.62540   0.25000 
H          H       0.37460   0.38730   0.25000 
H          H       0.38730   0.01270   0.75000 
H          H       0.98730   0.37460   0.75000 
H          H       0.62540   0.61270   0.75000 
H          H       0.13803   0.21508   0.25000 
H          H       0.78492   0.92295   0.25000 
H          H       0.07705   0.86197   0.25000 
H          H       0.86197   0.78492   0.75000 
H          H       0.21508   0.07705   0.75000 
H          H       0.92295   0.13803   0.75000 
H          H       0.10219   0.28440   0.25000 
H          H       0.71560   0.81779   0.25000 
H          H       0.18221   0.89781   0.25000 
H          H       0.89781   0.71560   0.75000 
H          H       0.28440   0.18221   0.75000 
H          H       0.81779   0.10219   0.75000 
H          H       0.08388   0.13377   0.25000 
H          H       0.86623   0.95011   0.25000 
H          H       0.04989   0.91612   0.25000 
H          H       0.91612   0.86623   0.75000 
H          H       0.13377   0.04989   0.75000 
H          H       0.95011   0.08388   0.75000 
H          H       0.09987   0.11537   0.25000 
H          H       0.88463   0.98450   0.25000 
H          H       0.01550   0.90013   0.25000 
H          H       0.90013   0.88463   0.75000 
H          H       0.11537   0.01550   0.75000 
H          H       0.98450   0.09987   0.75000 
H          H       0.16336   0.17257   0.25000 
H          H       0.82743   0.99079   0.25000 
H          H       0.00921   0.83664   0.25000 
H          H       0.83664   0.82743   0.75000 
H          H       0.17257   0.00921   0.75000 
H          H       0.99079   0.16336   0.75000 
H          H       0.14850   0.19471   0.25000 
H          H       0.80529   0.95379   0.25000 
H          H       0.04621   0.85150   0.25000 
H          H       0.85150   0.80529   0.75000 
H          H       0.19471   0.04621   0.75000 
H          H       0.95379   0.14850   0.75000 
H          H       0.08225   0.29812   0.25000 
H          H       0.70188   0.78413   0.25000 
H          H       0.21587   0.91775   0.25000 
H          H       0.91775   0.70188   0.75000 
H          H       0.29812   0.21587   0.75000 
H          H       0.78413   0.08225   0.75000 
H          H       0.05975   0.31474   0.25000 
H          H       0.68526   0.74501   0.25000 
H          H       0.25499   0.94025   0.25000 
H          H       0.94025   0.68526   0.75000 
H          H       0.31474   0.25499   0.75000 
H          H       0.74501   0.05975   0.75000 
H          H       0.11730   0.37915   0.25000 
H          H       0.62085   0.73815   0.25000 
H          H       0.26185   0.88270   0.25000 
H          H       0.88270   0.62085   0.75000 
H          H       0.37915   0.26185   0.75000 
H          H       0.73815   0.11730   0.75000 
H          H       0.14042   0.36351   0.25000 
H          H       0.63649   0.77691   0.25000 
H          H       0.22309   0.85958   0.25000 
H          H       0.85958   0.63649   0.75000 
H          H       0.36351   0.22309   0.75000 
H          H       0.77691   0.14042   0.75000 
H          H       0.96643   0.06290   0.25000 
H          H       0.93710   0.90353   0.25000 
H          H       0.09647   0.03357   0.25000 
H          H       0.03357   0.93710   0.75000 
H          H       0.06290   0.09647   0.75000 
H          H       0.90353   0.96643   0.75000 
H          H       0.89623   0.06347   0.25000 
H          H       0.93653   0.83276   0.25000 
H          H       0.16724   0.10377   0.25000 
H          H       0.10377   0.93653   0.75000 
H          H       0.06347   0.16724   0.75000 
H          H       0.83276   0.89623   0.75000 
H          H       0.09934   0.42227   0.25000 
H          H       0.57773   0.67707   0.25000 
H          H       0.32293   0.90066   0.25000 
H          H       0.90066   0.57773   0.75000 
H          H       0.42227   0.32293   0.75000 
H          H       0.67707   0.09934   0.75000 
H          H       0.01798   0.38579   0.25000 
H          H       0.61421   0.63219   0.25000 
H          H       0.36781   0.98202   0.25000 
H          H       0.98202   0.61421   0.75000 
H          H       0.38579   0.36781   0.75000 
H          H       0.63219   0.01798   0.75000 
H          H       0.15925   0.34892   0.25000 
H          H       0.65108   0.81033   0.25000 
H          H       0.18967   0.84075   0.25000 
H          H       0.84075   0.65108   0.75000 
H          H       0.34892   0.18967   0.75000 
H          H       0.81033   0.15925   0.75000 
H          H       0.06613   0.20856   0.25000 
H          H       0.79144   0.85757   0.25000 
H          H       0.14243   0.93387   0.25000 
H          H       0.93387   0.79144   0.75000 
H          H       0.20856   0.14243   0.75000 
H          H       0.85757   0.06613   0.75000 
H          H       0.15230   0.25634   0.25000 
H          H       0.74366   0.89596   0.25000 
H          H       0.10404   0.84770   0.25000 
H          H       0.84770   0.74366   0.75000 
H          H       0.25634   0.10404   0.75000 
H          H       0.89596   0.15230   0.75000 
H          H       0.16553   0.29148   0.25000 
H          H       0.70852   0.87405   0.25000 
H          H       0.12595   0.83447   0.25000 
H          H       0.83447   0.70852   0.75000 
H          H       0.29148   0.12595   0.75000 
H          H       0.87405   0.16553   0.75000 
H          H       0.03573   0.18324   0.25000 
H          H       0.81676   0.85249   0.25000 
H          H       0.14751   0.96427   0.25000 
H          H       0.96427   0.81676   0.75000 
H          H       0.18324   0.14751   0.75000 
H          H       0.85249   0.03573   0.75000 
H          H       0.00051   0.15101   0.25000 
H          H       0.84899   0.84950   0.25000 
H          H       0.15050   0.99949   0.25000 
H          H       0.99949   0.84899   0.75000 
H          H       0.15101   0.15050   0.75000 
H          H       0.84950   0.00051   0.75000 
H          H       0.03119   0.11121   0.25000 
H          H       0.88879   0.91998   0.25000 
H          H       0.08002   0.96881   0.25000 
H          H       0.96881   0.88879   0.75000 
H          H       0.11121   0.08002   0.75000 
H          H       0.91998   0.03119   0.75000 
H          H       0.06550   0.14496   0.25000 
H          H       0.85504   0.92054   0.25000 
H          H       0.07946   0.93450   0.25000 
H          H       0.93450   0.85504   0.75000 
H          H       0.14496   0.07946   0.75000 
H          H       0.92054   0.06550   0.75000 
H          H       0.19266   0.36906   0.25000 
H          H       0.63094   0.82360   0.25000 
H          H       0.17640   0.80734   0.25000 
H          H       0.80734   0.63094   0.75000 
H          H       0.36906   0.17640   0.75000 
H          H       0.82360   0.19266   0.75000 
H          H       0.23176   0.39110   0.25000 
H          H       0.60890   0.84066   0.25000 
H          H       0.15934   0.76824   0.25000 
H          H       0.76824   0.60890   0.75000 
H          H       0.39110   0.15934   0.75000 
H          H       0.84066   0.23176   0.75000 
H          H       0.23777   0.33306   0.25000 
H          H       0.66694   0.90471   0.25000 
H          H       0.09529   0.76223   0.25000 
H          H       0.76223   0.66694   0.75000 
H          H       0.33306   0.09529   0.75000 
H          H       0.90471   0.23777   0.75000 
H          H       0.19897   0.31034   0.25000 
H          H       0.68966   0.88863   0.25000 
H          H       0.11137   0.80103   0.25000 
H          H       0.80103   0.68966   0.75000 
H          H       0.31034   0.11137   0.75000 
H          H       0.88863   0.19897   0.75000 
H          H       0.93274   0.02931   0.25000 
H          H       0.97069   0.90343   0.25000 
H          H       0.09657   0.06726   0.25000 
H          H       0.06726   0.97069   0.75000 
H          H       0.02931   0.09657   0.75000 
H          H       0.90343   0.93274   0.75000 
H          H       0.93124   0.09910   0.25000 
H          H       0.90090   0.83214   0.25000 
H          H       0.16786   0.06876   0.25000 
H          H       0.06876   0.90090   0.75000 
H          H       0.09910   0.16786   0.75000 
H          H       0.83214   0.93124   0.75000 
H          H       0.08183   0.44463   0.25000 
H          H       0.55537   0.63720   0.25000 
H          H       0.36280   0.91817   0.25000 
H          H       0.91817   0.55537   0.75000 
H          H       0.44463   0.36280   0.75000 
H          H       0.63720   0.08183   0.75000 
H          H       0.03553   0.36339   0.25000 
H          H       0.63661   0.67214   0.25000 
H          H       0.32786   0.96447   0.25000 
H          H       0.96447   0.63661   0.75000 
H          H       0.36339   0.32786   0.75000 
H          H       0.67214   0.03553   0.75000 
H          H       0.56745   0.32732   0.25000 
H          H       0.67268   0.24013   0.25000 
H          H       0.75987   0.43255   0.25000 
H          H       0.43255   0.67268   0.75000 
H          H       0.32732   0.75987   0.75000 
H          H       0.24013   0.56745   0.75000 
H          H       0.50661   0.19941   0.25000 
H          H       0.80059   0.30720   0.25000 
H          H       0.69280   0.49339   0.25000 
H          H       0.49339   0.80059   0.75000 
H          H       0.19941   0.69280   0.75000 
H          H       0.30720   0.50661   0.75000 
H          H       0.06292   0.46113   0.25000 
H          H       0.53887   0.60179   0.25000 
H          H       0.39821   0.93708   0.25000 
H          H       0.93708   0.53887   0.75000 
H          H       0.46113   0.39821   0.75000 
H          H       0.60179   0.06292   0.75000 
H          H       0.05466   0.34693   0.25000 
H          H       0.65307   0.70773   0.25000 
H          H       0.29227   0.94534   0.25000 
H          H       0.94534   0.65307   0.75000 
H          H       0.34693   0.29227   0.75000 
H          H       0.70773   0.05466   0.75000 
