data_crystal

_cell_length_a    70.26000
_cell_length_b    70.26000
_cell_length_c    6.88000
_cell_angle_alpha 90.00000
_cell_angle_beta  90.00000
_cell_angle_gamma 120.00000

_space_group_name_Hall 'P 1'
_space_group_name_H-M_alt  'P 1'

loop_
_symmetry_equiv_pos_as_xyz
'x,y,z' 

loop_
_atom_site_label
_atom_site_type_symbol
_atom_site_fract_x
_atom_site_fract_y
_atom_site_fract_z
C          C       0.20849   0.45737   0.00000 
C          C       0.54263   0.75112   0.00000 
C          C       0.24888   0.79151   0.00000 
C          C       0.79151   0.54263   0.00000 
C          C       0.45737   0.24888   0.00000 
C          C       0.75112   0.20849   0.00000 
C          C       0.21046   0.43894   0.00000 
C          C       0.56106   0.77152   0.00000 
C          C       0.22848   0.78954   0.00000 
C          C       0.78954   0.56106   0.00000 
C          C       0.43894   0.22848   0.00000 
C          C       0.77152   0.21046   0.00000 
C          C       0.24932   0.48018   0.00000 
C          C       0.51982   0.76914   0.00000 
C          C       0.23086   0.75068   0.00000 
C          C       0.75068   0.51982   0.00000 
C          C       0.48018   0.23086   0.00000 
C          C       0.76914   0.24932   0.00000 
N          N       0.22697   0.41844   0.00000 
N          N       0.58156   0.80853   0.00000 
N          N       0.19147   0.77303   0.00000 
N          N       0.77303   0.58156   0.00000 
N          N       0.41844   0.19147   0.00000 
N          N       0.80853   0.22697   0.00000 
C          C       0.20909   0.37144   0.00000 
C          C       0.62856   0.83765   0.00000 
C          C       0.16235   0.79091   0.00000 
C          C       0.79091   0.62856   0.00000 
C          C       0.37144   0.16235   0.00000 
C          C       0.83765   0.20909   0.00000 
C          C       0.20026   0.34847   0.00000 
C          C       0.65153   0.85179   0.00000 
C          C       0.14821   0.79974   0.00000 
C          C       0.79974   0.65153   0.00000 
C          C       0.34847   0.14821   0.00000 
C          C       0.85179   0.20026   0.00000 
C          C       0.21843   0.49740   0.00000 
C          C       0.50260   0.72103   0.00000 
C          C       0.27897   0.78157   0.00000 
C          C       0.78157   0.50260   0.00000 
C          C       0.49740   0.27897   0.00000 
C          C       0.72103   0.21843   0.00000 
C          C       0.13796   0.32942   0.00000 
C          C       0.67058   0.80854   0.00000 
C          C       0.19146   0.86204   0.00000 
C          C       0.86204   0.67058   0.00000 
C          C       0.32942   0.19146   0.00000 
C          C       0.80854   0.13796   0.00000 
C          C       0.23051   0.52120   0.00000 
C          C       0.47880   0.70931   0.00000 
C          C       0.29069   0.76949   0.00000 
C          C       0.76949   0.47880   0.00000 
C          C       0.52120   0.29069   0.00000 
C          C       0.70931   0.23051   0.00000 
C          C       0.22111   0.53459   0.00000 
C          C       0.46541   0.68652   0.00000 
C          C       0.31348   0.77889   0.00000 
C          C       0.77889   0.46541   0.00000 
C          C       0.53459   0.31348   0.00000 
C          C       0.68652   0.22111   0.00000 
C          C       0.19861   0.52607   0.00000 
C          C       0.47393   0.67254   0.00000 
C          C       0.32746   0.80139   0.00000 
C          C       0.80139   0.47393   0.00000 
C          C       0.52607   0.32746   0.00000 
C          C       0.67254   0.19861   0.00000 
C          C       0.18553   0.50347   0.00000 
C          C       0.49653   0.68206   0.00000 
C          C       0.31794   0.81447   0.00000 
C          C       0.81447   0.49653   0.00000 
C          C       0.50347   0.31794   0.00000 
C          C       0.68206   0.18553   0.00000 
C          C       0.19492   0.48982   0.00000 
C          C       0.51018   0.70510   0.00000 
C          C       0.29490   0.80508   0.00000 
C          C       0.80508   0.51018   0.00000 
C          C       0.48982   0.29490   0.00000 
C          C       0.70510   0.19492   0.00000 
C          C       0.23833   0.35167   0.00000 
C          C       0.64833   0.88666   0.00000 
C          C       0.11334   0.76167   0.00000 
C          C       0.76167   0.64833   0.00000 
C          C       0.35167   0.11334   0.00000 
C          C       0.88666   0.23833   0.00000 
C          C       0.25191   0.34242   0.00000 
C          C       0.65758   0.90949   0.00000 
C          C       0.09051   0.74809   0.00000 
C          C       0.74809   0.65758   0.00000 
C          C       0.34242   0.09051   0.00000 
C          C       0.90949   0.25191   0.00000 
C          C       0.24295   0.31966   0.00000 
C          C       0.68034   0.92329   0.00000 
C          C       0.07671   0.75705   0.00000 
C          C       0.75705   0.68034   0.00000 
C          C       0.31966   0.07671   0.00000 
C          C       0.92329   0.24295   0.00000 
C          C       0.22008   0.30619   0.00000 
C          C       0.69381   0.91389   0.00000 
C          C       0.08611   0.77992   0.00000 
C          C       0.77992   0.69381   0.00000 
C          C       0.30619   0.08611   0.00000 
C          C       0.91389   0.22008   0.00000 
C          C       0.20641   0.31532   0.00000 
C          C       0.68468   0.89109   0.00000 
C          C       0.10891   0.79359   0.00000 
C          C       0.79359   0.68468   0.00000 
C          C       0.31532   0.10891   0.00000 
C          C       0.89109   0.20641   0.00000 
C          C       0.37826   0.58024   0.00000 
C          C       0.41976   0.79802   0.00000 
C          C       0.20198   0.62174   0.00000 
C          C       0.62174   0.41976   0.00000 
C          C       0.58024   0.20198   0.00000 
C          C       0.79802   0.37826   0.00000 
C          C       0.37896   0.60069   0.00000 
C          C       0.39931   0.77827   0.00000 
C          C       0.22173   0.62104   0.00000 
C          C       0.62104   0.39931   0.00000 
C          C       0.60069   0.22173   0.00000 
C          C       0.77827   0.37896   0.00000 
C          C       0.41858   0.60032   0.00000 
C          C       0.39968   0.81826   0.00000 
C          C       0.18174   0.58142   0.00000 
C          C       0.58142   0.39968   0.00000 
C          C       0.60032   0.18174   0.00000 
C          C       0.81826   0.41858   0.00000 
C          C       0.26169   0.27757   0.00000 
C          C       0.72243   0.98412   0.00000 
C          C       0.01588   0.73831   0.00000 
C          C       0.73831   0.72243   0.00000 
C          C       0.27757   0.01588   0.00000 
C          C       0.98412   0.26169   0.00000 
C          C       0.24967   0.25459   0.00000 
C          C       0.74541   0.99508   0.00000 
C          C       0.00492   0.75033   0.00000 
C          C       0.75033   0.74541   0.00000 
C          C       0.25459   0.00492   0.00000 
C          C       0.99508   0.24967   0.00000 
C          C       0.29547   0.27591   0.00000 
C          C       0.72409   0.01956   0.00000 
C          C       0.98044   0.70453   0.00000 
C          C       0.70453   0.72409   0.00000 
C          C       0.27591   0.98044   0.00000 
C          C       0.01956   0.29547   0.00000 
C          C       0.20576   0.40525   0.00000 
C          C       0.59475   0.80051   0.00000 
C          C       0.19949   0.79424   0.00000 
C          C       0.79424   0.59475   0.00000 
C          C       0.40525   0.19949   0.00000 
C          C       0.80051   0.20576   0.00000 
C          C       0.19565   0.38091   0.00000 
C          C       0.61909   0.81474   0.00000 
C          C       0.18526   0.80435   0.00000 
C          C       0.80435   0.61909   0.00000 
C          C       0.38091   0.18526   0.00000 
C          C       0.81474   0.19565   0.00000 
C          C       0.17707   0.33524   0.00000 
C          C       0.66476   0.84183   0.00000 
C          C       0.15817   0.82293   0.00000 
C          C       0.82293   0.66476   0.00000 
C          C       0.33524   0.15817   0.00000 
C          C       0.84183   0.17707   0.00000 
C          C       0.22970   0.43991   0.00000 
C          C       0.56009   0.78979   0.00000 
C          C       0.21021   0.77030   0.00000 
C          C       0.77030   0.56009   0.00000 
C          C       0.43991   0.21021   0.00000 
C          C       0.78979   0.22970   0.00000 
C          C       0.24884   0.45949   0.00000 
C          C       0.54051   0.78935   0.00000 
C          C       0.21065   0.75116   0.00000 
C          C       0.75116   0.54051   0.00000 
C          C       0.45949   0.21065   0.00000 
C          C       0.78935   0.24884   0.00000 
C          C       0.22700   0.47962   0.00000 
C          C       0.52038   0.74738   0.00000 
C          C       0.25262   0.77300   0.00000 
C          C       0.77300   0.52038   0.00000 
C          C       0.47962   0.25262   0.00000 
C          C       0.74738   0.22700   0.00000 
N          N       0.19355   0.41665   0.00000 
N          N       0.58335   0.77690   0.00000 
N          N       0.22310   0.80645   0.00000 
N          N       0.80645   0.58335   0.00000 
N          N       0.41665   0.22310   0.00000 
N          N       0.77690   0.19355   0.00000 
C          C       0.16287   0.34412   0.00000 
C          C       0.65588   0.81875   0.00000 
C          C       0.18125   0.83713   0.00000 
C          C       0.83713   0.65588   0.00000 
C          C       0.34412   0.18125   0.00000 
C          C       0.81875   0.16287   0.00000 
C          C       0.17280   0.36724   0.00000 
C          C       0.63276   0.80556   0.00000 
C          C       0.19444   0.82720   0.00000 
C          C       0.82720   0.63276   0.00000 
C          C       0.36724   0.19444   0.00000 
C          C       0.80556   0.17280   0.00000 
C          C       0.27371   0.49927   0.00000 
C          C       0.50073   0.77444   0.00000 
C          C       0.22556   0.72629   0.00000 
C          C       0.72629   0.50073   0.00000 
C          C       0.49927   0.22556   0.00000 
C          C       0.77444   0.27371   0.00000 
C          C       0.21508   0.33841   0.00000 
C          C       0.66159   0.87667   0.00000 
C          C       0.12333   0.78492   0.00000 
C          C       0.78492   0.66159   0.00000 
C          C       0.33841   0.12333   0.00000 
C          C       0.87667   0.21508   0.00000 
C          C       0.29331   0.49742   0.00000 
C          C       0.50258   0.79589   0.00000 
C          C       0.20411   0.70669   0.00000 
C          C       0.70669   0.50258   0.00000 
C          C       0.49742   0.20411   0.00000 
C          C       0.79589   0.29331   0.00000 
C          C       0.31466   0.51613   0.00000 
C          C       0.48387   0.79853   0.00000 
C          C       0.20147   0.68534   0.00000 
C          C       0.68534   0.48387   0.00000 
C          C       0.51613   0.20147   0.00000 
C          C       0.79853   0.31466   0.00000 
C          C       0.31723   0.53721   0.00000 
C          C       0.46279   0.78002   0.00000 
C          C       0.21998   0.68277   0.00000 
C          C       0.68277   0.46279   0.00000 
C          C       0.53721   0.21998   0.00000 
C          C       0.78002   0.31723   0.00000 
C          C       0.29841   0.53895   0.00000 
C          C       0.46105   0.75946   0.00000 
C          C       0.24054   0.70159   0.00000 
C          C       0.70159   0.46105   0.00000 
C          C       0.53895   0.24054   0.00000 
C          C       0.75946   0.29841   0.00000 
C          C       0.27793   0.52026   0.00000 
C          C       0.47974   0.75767   0.00000 
C          C       0.24233   0.72207   0.00000 
C          C       0.72207   0.47974   0.00000 
C          C       0.52026   0.24233   0.00000 
C          C       0.75767   0.27793   0.00000 
C          C       0.12777   0.30615   0.00000 
C          C       0.69385   0.82162   0.00000 
C          C       0.17838   0.87223   0.00000 
C          C       0.87223   0.69385   0.00000 
C          C       0.30615   0.17838   0.00000 
C          C       0.82162   0.12777   0.00000 
C          C       0.10493   0.29276   0.00000 
C          C       0.70724   0.81217   0.00000 
C          C       0.18783   0.89507   0.00000 
C          C       0.89507   0.70724   0.00000 
C          C       0.29276   0.18783   0.00000 
C          C       0.81217   0.10493   0.00000 
C          C       0.09129   0.30192   0.00000 
C          C       0.69808   0.78937   0.00000 
C          C       0.21063   0.90871   0.00000 
C          C       0.90871   0.69808   0.00000 
C          C       0.30192   0.21063   0.00000 
C          C       0.78937   0.09129   0.00000 
C          C       0.10089   0.32481   0.00000 
C          C       0.67519   0.77608   0.00000 
C          C       0.22392   0.89911   0.00000 
C          C       0.89911   0.67519   0.00000 
C          C       0.32481   0.22392   0.00000 
C          C       0.77608   0.10089   0.00000 
C          C       0.12373   0.33831   0.00000 
C          C       0.66169   0.78542   0.00000 
C          C       0.21458   0.87627   0.00000 
C          C       0.87627   0.66169   0.00000 
C          C       0.33831   0.21458   0.00000 
C          C       0.78542   0.12373   0.00000 
C          C       0.39880   0.62022   0.00000 
C          C       0.37978   0.77858   0.00000 
C          C       0.22142   0.60120   0.00000 
C          C       0.60120   0.37978   0.00000 
C          C       0.62022   0.22142   0.00000 
C          C       0.77858   0.39880   0.00000 
C          C       0.41864   0.62035   0.00000 
C          C       0.37965   0.79829   0.00000 
C          C       0.20171   0.58136   0.00000 
C          C       0.58136   0.37965   0.00000 
C          C       0.62035   0.20171   0.00000 
C          C       0.79829   0.41864   0.00000 
C          C       0.39838   0.58035   0.00000 
C          C       0.41965   0.81803   0.00000 
C          C       0.18197   0.60162   0.00000 
C          C       0.60162   0.41965   0.00000 
C          C       0.58035   0.18197   0.00000 
C          C       0.81803   0.39838   0.00000 
C          C       0.26031   0.24228   0.00000 
C          C       0.75772   0.01803   0.00000 
C          C       0.98197   0.73969   0.00000 
C          C       0.73969   0.75772   0.00000 
C          C       0.24228   0.98197   0.00000 
C          C       0.01803   0.26031   0.00000 
C          C       0.28344   0.25292   0.00000 
C          C       0.74708   0.03052   0.00000 
C          C       0.96948   0.71656   0.00000 
C          C       0.71656   0.74708   0.00000 
C          C       0.25292   0.96948   0.00000 
C          C       0.03052   0.28344   0.00000 
C          C       0.28482   0.28822   0.00000 
C          C       0.71178   0.99660   0.00000 
C          C       0.00340   0.71518   0.00000 
C          C       0.71518   0.71178   0.00000 
C          C       0.28822   0.00340   0.00000 
C          C       0.99660   0.28482   0.00000 
C          C       0.78044   0.33843   0.00000 
C          C       0.66157   0.44201   0.00000 
C          C       0.55799   0.21956   0.00000 
C          C       0.21956   0.66157   0.00000 
C          C       0.33843   0.55799   0.00000 
C          C       0.44201   0.78044   0.00000 
N          N       0.79821   0.35769   0.00000 
N          N       0.64231   0.44052   0.00000 
N          N       0.55948   0.20179   0.00000 
N          N       0.20179   0.64231   0.00000 
N          N       0.35769   0.55948   0.00000 
N          N       0.44052   0.79821   0.00000 
N          N       0.79627   0.43788   0.00000 
N          N       0.56212   0.35839   0.00000 
N          N       0.64161   0.20373   0.00000 
N          N       0.20373   0.56212   0.00000 
N          N       0.43788   0.64161   0.00000 
N          N       0.35839   0.79627   0.00000 
C          C       0.81040   0.45876   0.00000 
C          C       0.54124   0.35164   0.00000 
C          C       0.64836   0.18960   0.00000 
C          C       0.18960   0.54124   0.00000 
C          C       0.45876   0.64836   0.00000 
C          C       0.35164   0.81040   0.00000 
N          N       0.29545   0.24129   0.00000 
N          N       0.75871   0.05416   0.00000 
N          N       0.94584   0.70455   0.00000 
N          N       0.70455   0.75871   0.00000 
N          N       0.24129   0.94584   0.00000 
N          N       0.05416   0.29545   0.00000 
C          C       0.28733   0.22012   0.00000 
C          C       0.77988   0.06721   0.00000 
C          C       0.93279   0.71267   0.00000 
C          C       0.71267   0.77988   0.00000 
C          C       0.22012   0.93279   0.00000 
C          C       0.06721   0.28733   0.00000 
C          C       0.25768   0.31032   0.00000 
C          C       0.68968   0.94736   0.00000 
C          C       0.05264   0.74232   0.00000 
C          C       0.74232   0.68968   0.00000 
C          C       0.31032   0.05264   0.00000 
C          C       0.94736   0.25768   0.00000 
N          N       0.24966   0.28917   0.00000 
N          N       0.71083   0.96049   0.00000 
N          N       0.03951   0.75034   0.00000 
N          N       0.75034   0.71083   0.00000 
N          N       0.28917   0.03951   0.00000 
N          N       0.96049   0.24966   0.00000 
H          H       0.19157   0.45228   0.00000 
H          H       0.54772   0.73929   0.00000 
H          H       0.26071   0.80843   0.00000 
H          H       0.80843   0.54772   0.00000 
H          H       0.45228   0.26071   0.00000 
H          H       0.73929   0.19157   0.00000 
H          H       0.22651   0.38253   0.00000 
H          H       0.61747   0.84398   0.00000 
H          H       0.15602   0.77349   0.00000 
H          H       0.77349   0.61747   0.00000 
H          H       0.38253   0.15602   0.00000 
H          H       0.84398   0.22651   0.00000 
H          H       0.24713   0.53332   0.00000 
H          H       0.46668   0.71381   0.00000 
H          H       0.28619   0.75287   0.00000 
H          H       0.75287   0.46668   0.00000 
H          H       0.53332   0.28619   0.00000 
H          H       0.71381   0.24713   0.00000 
H          H       0.23196   0.55233   0.00000 
H          H       0.44767   0.67963   0.00000 
H          H       0.32037   0.76804   0.00000 
H          H       0.76804   0.44767   0.00000 
H          H       0.55233   0.32037   0.00000 
H          H       0.67963   0.23196   0.00000 
H          H       0.16780   0.49616   0.00000 
H          H       0.50384   0.67164   0.00000 
H          H       0.32836   0.83220   0.00000 
H          H       0.83220   0.50384   0.00000 
H          H       0.49616   0.32836   0.00000 
H          H       0.67164   0.16780   0.00000 
H          H       0.18184   0.47326   0.00000 
H          H       0.52674   0.70858   0.00000 
H          H       0.29142   0.81816   0.00000 
H          H       0.81816   0.52674   0.00000 
H          H       0.47326   0.29142   0.00000 
H          H       0.70858   0.18184   0.00000 
H          H       0.24674   0.36932   0.00000 
H          H       0.63068   0.87742   0.00000 
H          H       0.12258   0.75326   0.00000 
H          H       0.75326   0.63068   0.00000 
H          H       0.36932   0.12258   0.00000 
H          H       0.87742   0.24674   0.00000 
H          H       0.26957   0.35320   0.00000 
H          H       0.64680   0.91637   0.00000 
H          H       0.08363   0.73043   0.00000 
H          H       0.73043   0.64680   0.00000 
H          H       0.35320   0.08363   0.00000 
H          H       0.91637   0.26957   0.00000 
H          H       0.21263   0.28846   0.00000 
H          H       0.71154   0.92417   0.00000 
H          H       0.07583   0.78737   0.00000 
H          H       0.78737   0.71154   0.00000 
H          H       0.28846   0.07583   0.00000 
H          H       0.92417   0.21263   0.00000 
H          H       0.18910   0.30363   0.00000 
H          H       0.69637   0.88547   0.00000 
H          H       0.11453   0.81090   0.00000 
H          H       0.81090   0.69637   0.00000 
H          H       0.30363   0.11453   0.00000 
H          H       0.88547   0.18910   0.00000 
H          H       0.36460   0.60243   0.00000 
H          H       0.39757   0.76217   0.00000 
H          H       0.23783   0.63540   0.00000 
H          H       0.63540   0.39757   0.00000 
H          H       0.60243   0.23783   0.00000 
H          H       0.76217   0.36460   0.00000 
H          H       0.43384   0.60006   0.00000 
H          H       0.39994   0.83378   0.00000 
H          H       0.16622   0.56616   0.00000 
H          H       0.56616   0.39994   0.00000 
H          H       0.60006   0.16622   0.00000 
H          H       0.83378   0.43384   0.00000 
H          H       0.23188   0.24615   0.00000 
H          H       0.75385   0.98573   0.00000 
H          H       0.01427   0.76812   0.00000 
H          H       0.76812   0.75385   0.00000 
H          H       0.24615   0.01427   0.00000 
H          H       0.98573   0.23188   0.00000 
H          H       0.31326   0.28435   0.00000 
H          H       0.71565   0.02891   0.00000 
H          H       0.97109   0.68674   0.00000 
H          H       0.68674   0.71565   0.00000 
H          H       0.28435   0.97109   0.00000 
H          H       0.02891   0.31326   0.00000 
H          H       0.17001   0.31792   0.00000 
H          H       0.68208   0.85209   0.00000 
H          H       0.14791   0.82999   0.00000 
H          H       0.82999   0.68208   0.00000 
H          H       0.31792   0.14791   0.00000 
H          H       0.85209   0.17001   0.00000 
H          H       0.26282   0.45734   0.00000 
H          H       0.54266   0.80548   0.00000 
H          H       0.19452   0.73718   0.00000 
H          H       0.73718   0.54266   0.00000 
H          H       0.45734   0.19452   0.00000 
H          H       0.80548   0.26282   0.00000 
H          H       0.17664   0.41060   0.00000 
H          H       0.58940   0.76604   0.00000 
H          H       0.23396   0.82336   0.00000 
H          H       0.82336   0.58940   0.00000 
H          H       0.41060   0.23396   0.00000 
H          H       0.76604   0.17664   0.00000 
H          H       0.16306   0.37502   0.00000 
H          H       0.62498   0.78804   0.00000 
H          H       0.21196   0.83694   0.00000 
H          H       0.83694   0.62498   0.00000 
H          H       0.37502   0.21196   0.00000 
H          H       0.78804   0.16306   0.00000 
H          H       0.29345   0.48223   0.00000 
H          H       0.51777   0.81122   0.00000 
H          H       0.18878   0.70655   0.00000 
H          H       0.70655   0.51777   0.00000 
H          H       0.48223   0.18878   0.00000 
H          H       0.81122   0.29345   0.00000 
H          H       0.32894   0.51408   0.00000 
H          H       0.48592   0.81486   0.00000 
H          H       0.18514   0.67106   0.00000 
H          H       0.67106   0.48592   0.00000 
H          H       0.51408   0.18514   0.00000 
H          H       0.81486   0.32894   0.00000 
H          H       0.29936   0.55483   0.00000 
H          H       0.44517   0.74453   0.00000 
H          H       0.25547   0.70064   0.00000 
H          H       0.70064   0.44517   0.00000 
H          H       0.55483   0.25547   0.00000 
H          H       0.74453   0.29936   0.00000 
H          H       0.26475   0.52132   0.00000 
H          H       0.47868   0.74343   0.00000 
H          H       0.25657   0.73525   0.00000 
H          H       0.73525   0.47868   0.00000 
H          H       0.52132   0.25657   0.00000 
H          H       0.74343   0.26475   0.00000 
H          H       0.13681   0.29753   0.00000 
H          H       0.70247   0.83928   0.00000 
H          H       0.16072   0.86319   0.00000 
H          H       0.86319   0.70247   0.00000 
H          H       0.29753   0.16072   0.00000 
H          H       0.83928   0.13681   0.00000 
H          H       0.09788   0.27508   0.00000 
H          H       0.72492   0.82280   0.00000 
H          H       0.17720   0.90212   0.00000 
H          H       0.90212   0.72492   0.00000 
H          H       0.27508   0.17720   0.00000 
H          H       0.82280   0.09788   0.00000 
H          H       0.09075   0.33241   0.00000 
H          H       0.66759   0.75834   0.00000 
H          H       0.24166   0.90925   0.00000 
H          H       0.90925   0.66759   0.00000 
H          H       0.33241   0.24166   0.00000 
H          H       0.75834   0.09075   0.00000 
H          H       0.12955   0.35566   0.00000 
H          H       0.64434   0.77389   0.00000 
H          H       0.22611   0.87045   0.00000 
H          H       0.87045   0.64434   0.00000 
H          H       0.35566   0.22611   0.00000 
H          H       0.77389   0.12955   0.00000 
H          H       0.39876   0.63562   0.00000 
H          H       0.36438   0.76314   0.00000 
H          H       0.23686   0.60124   0.00000 
H          H       0.60124   0.36438   0.00000 
H          H       0.63562   0.23686   0.00000 
H          H       0.76314   0.39876   0.00000 
H          H       0.39839   0.56495   0.00000 
H          H       0.43505   0.83344   0.00000 
H          H       0.16656   0.60161   0.00000 
H          H       0.60161   0.43505   0.00000 
H          H       0.56495   0.16656   0.00000 
H          H       0.83344   0.39839   0.00000 
H          H       0.25022   0.22461   0.00000 
H          H       0.77539   0.02561   0.00000 
H          H       0.97439   0.74978   0.00000 
H          H       0.74978   0.77539   0.00000 
H          H       0.22461   0.97439   0.00000 
H          H       0.02561   0.25022   0.00000 
H          H       0.29489   0.30589   0.00000 
H          H       0.69411   0.98900   0.00000 
H          H       0.01100   0.70511   0.00000 
H          H       0.70511   0.69411   0.00000 
H          H       0.30589   0.01100   0.00000 
H          H       0.98900   0.29489   0.00000 
H          H       0.76446   0.33693   0.00000 
H          H       0.66307   0.42753   0.00000 
H          H       0.57247   0.23554   0.00000 
H          H       0.23554   0.66307   0.00000 
H          H       0.33693   0.57247   0.00000 
H          H       0.42753   0.76446   0.00000 
H          H       0.82791   0.46482   0.00000 
H          H       0.53518   0.36309   0.00000 
H          H       0.63691   0.17209   0.00000 
H          H       0.17209   0.53518   0.00000 
H          H       0.46482   0.63691   0.00000 
H          H       0.36309   0.82791   0.00000 
H          H       0.26980   0.20897   0.00000 
H          H       0.79103   0.06083   0.00000 
H          H       0.93917   0.73020   0.00000 
H          H       0.73020   0.79103   0.00000 
H          H       0.20897   0.93917   0.00000 
H          H       0.06083   0.26980   0.00000 
H          H       0.27520   0.32154   0.00000 
H          H       0.67846   0.95366   0.00000 
H          H       0.04634   0.72480   0.00000 
H          H       0.72480   0.67846   0.00000 
H          H       0.32154   0.04634   0.00000 
H          H       0.95366   0.27520   0.00000 
C          C       0.20849   0.45737   0.50000 
C          C       0.54263   0.75112   0.50000 
C          C       0.24888   0.79151   0.50000 
C          C       0.79151   0.54263   0.50000 
C          C       0.45737   0.24888   0.50000 
C          C       0.75112   0.20849   0.50000 
C          C       0.21046   0.43894   0.50000 
C          C       0.56106   0.77152   0.50000 
C          C       0.22848   0.78954   0.50000 
C          C       0.78954   0.56106   0.50000 
C          C       0.43894   0.22848   0.50000 
C          C       0.77152   0.21046   0.50000 
C          C       0.24932   0.48018   0.50000 
C          C       0.51982   0.76914   0.50000 
C          C       0.23086   0.75068   0.50000 
C          C       0.75068   0.51982   0.50000 
C          C       0.48018   0.23086   0.50000 
C          C       0.76914   0.24932   0.50000 
N          N       0.22697   0.41844   0.50000 
N          N       0.58156   0.80853   0.50000 
N          N       0.19147   0.77303   0.50000 
N          N       0.77303   0.58156   0.50000 
N          N       0.41844   0.19147   0.50000 
N          N       0.80853   0.22697   0.50000 
C          C       0.20909   0.37144   0.50000 
C          C       0.62856   0.83765   0.50000 
C          C       0.16235   0.79091   0.50000 
C          C       0.79091   0.62856   0.50000 
C          C       0.37144   0.16235   0.50000 
C          C       0.83765   0.20909   0.50000 
C          C       0.20026   0.34847   0.50000 
C          C       0.65153   0.85179   0.50000 
C          C       0.14821   0.79974   0.50000 
C          C       0.79974   0.65153   0.50000 
C          C       0.34847   0.14821   0.50000 
C          C       0.85179   0.20026   0.50000 
C          C       0.21843   0.49740   0.50000 
C          C       0.50260   0.72103   0.50000 
C          C       0.27897   0.78157   0.50000 
C          C       0.78157   0.50260   0.50000 
C          C       0.49740   0.27897   0.50000 
C          C       0.72103   0.21843   0.50000 
C          C       0.13796   0.32942   0.50000 
C          C       0.67058   0.80854   0.50000 
C          C       0.19146   0.86204   0.50000 
C          C       0.86204   0.67058   0.50000 
C          C       0.32942   0.19146   0.50000 
C          C       0.80854   0.13796   0.50000 
C          C       0.23051   0.52120   0.50000 
C          C       0.47880   0.70931   0.50000 
C          C       0.29069   0.76949   0.50000 
C          C       0.76949   0.47880   0.50000 
C          C       0.52120   0.29069   0.50000 
C          C       0.70931   0.23051   0.50000 
C          C       0.22111   0.53459   0.50000 
C          C       0.46541   0.68652   0.50000 
C          C       0.31348   0.77889   0.50000 
C          C       0.77889   0.46541   0.50000 
C          C       0.53459   0.31348   0.50000 
C          C       0.68652   0.22111   0.50000 
C          C       0.19861   0.52607   0.50000 
C          C       0.47393   0.67254   0.50000 
C          C       0.32746   0.80139   0.50000 
C          C       0.80139   0.47393   0.50000 
C          C       0.52607   0.32746   0.50000 
C          C       0.67254   0.19861   0.50000 
C          C       0.18553   0.50347   0.50000 
C          C       0.49653   0.68206   0.50000 
C          C       0.31794   0.81447   0.50000 
C          C       0.81447   0.49653   0.50000 
C          C       0.50347   0.31794   0.50000 
C          C       0.68206   0.18553   0.50000 
C          C       0.19492   0.48982   0.50000 
C          C       0.51018   0.70510   0.50000 
C          C       0.29490   0.80508   0.50000 
C          C       0.80508   0.51018   0.50000 
C          C       0.48982   0.29490   0.50000 
C          C       0.70510   0.19492   0.50000 
C          C       0.23833   0.35167   0.50000 
C          C       0.64833   0.88666   0.50000 
C          C       0.11334   0.76167   0.50000 
C          C       0.76167   0.64833   0.50000 
C          C       0.35167   0.11334   0.50000 
C          C       0.88666   0.23833   0.50000 
C          C       0.25191   0.34242   0.50000 
C          C       0.65758   0.90949   0.50000 
C          C       0.09051   0.74809   0.50000 
C          C       0.74809   0.65758   0.50000 
C          C       0.34242   0.09051   0.50000 
C          C       0.90949   0.25191   0.50000 
C          C       0.24295   0.31966   0.50000 
C          C       0.68034   0.92329   0.50000 
C          C       0.07671   0.75705   0.50000 
C          C       0.75705   0.68034   0.50000 
C          C       0.31966   0.07671   0.50000 
C          C       0.92329   0.24295   0.50000 
C          C       0.22008   0.30619   0.50000 
C          C       0.69381   0.91389   0.50000 
C          C       0.08611   0.77992   0.50000 
C          C       0.77992   0.69381   0.50000 
C          C       0.30619   0.08611   0.50000 
C          C       0.91389   0.22008   0.50000 
C          C       0.20641   0.31532   0.50000 
C          C       0.68468   0.89109   0.50000 
C          C       0.10891   0.79359   0.50000 
C          C       0.79359   0.68468   0.50000 
C          C       0.31532   0.10891   0.50000 
C          C       0.89109   0.20641   0.50000 
C          C       0.37826   0.58024   0.50000 
C          C       0.41976   0.79802   0.50000 
C          C       0.20198   0.62174   0.50000 
C          C       0.62174   0.41976   0.50000 
C          C       0.58024   0.20198   0.50000 
C          C       0.79802   0.37826   0.50000 
C          C       0.37896   0.60069   0.50000 
C          C       0.39931   0.77827   0.50000 
C          C       0.22173   0.62104   0.50000 
C          C       0.62104   0.39931   0.50000 
C          C       0.60069   0.22173   0.50000 
C          C       0.77827   0.37896   0.50000 
C          C       0.41858   0.60032   0.50000 
C          C       0.39968   0.81826   0.50000 
C          C       0.18174   0.58142   0.50000 
C          C       0.58142   0.39968   0.50000 
C          C       0.60032   0.18174   0.50000 
C          C       0.81826   0.41858   0.50000 
C          C       0.26169   0.27757   0.50000 
C          C       0.72243   0.98412   0.50000 
C          C       0.01588   0.73831   0.50000 
C          C       0.73831   0.72243   0.50000 
C          C       0.27757   0.01588   0.50000 
C          C       0.98412   0.26169   0.50000 
C          C       0.24967   0.25459   0.50000 
C          C       0.74541   0.99508   0.50000 
C          C       0.00492   0.75033   0.50000 
C          C       0.75033   0.74541   0.50000 
C          C       0.25459   0.00492   0.50000 
C          C       0.99508   0.24967   0.50000 
C          C       0.29547   0.27591   0.50000 
C          C       0.72409   0.01956   0.50000 
C          C       0.98044   0.70453   0.50000 
C          C       0.70453   0.72409   0.50000 
C          C       0.27591   0.98044   0.50000 
C          C       0.01956   0.29547   0.50000 
C          C       0.20576   0.40525   0.50000 
C          C       0.59475   0.80051   0.50000 
C          C       0.19949   0.79424   0.50000 
C          C       0.79424   0.59475   0.50000 
C          C       0.40525   0.19949   0.50000 
C          C       0.80051   0.20576   0.50000 
C          C       0.19565   0.38091   0.50000 
C          C       0.61909   0.81474   0.50000 
C          C       0.18526   0.80435   0.50000 
C          C       0.80435   0.61909   0.50000 
C          C       0.38091   0.18526   0.50000 
C          C       0.81474   0.19565   0.50000 
C          C       0.17707   0.33524   0.50000 
C          C       0.66476   0.84183   0.50000 
C          C       0.15817   0.82293   0.50000 
C          C       0.82293   0.66476   0.50000 
C          C       0.33524   0.15817   0.50000 
C          C       0.84183   0.17707   0.50000 
C          C       0.22970   0.43991   0.50000 
C          C       0.56009   0.78979   0.50000 
C          C       0.21021   0.77030   0.50000 
C          C       0.77030   0.56009   0.50000 
C          C       0.43991   0.21021   0.50000 
C          C       0.78979   0.22970   0.50000 
C          C       0.24884   0.45949   0.50000 
C          C       0.54051   0.78935   0.50000 
C          C       0.21065   0.75116   0.50000 
C          C       0.75116   0.54051   0.50000 
C          C       0.45949   0.21065   0.50000 
C          C       0.78935   0.24884   0.50000 
C          C       0.22700   0.47962   0.50000 
C          C       0.52038   0.74738   0.50000 
C          C       0.25262   0.77300   0.50000 
C          C       0.77300   0.52038   0.50000 
C          C       0.47962   0.25262   0.50000 
C          C       0.74738   0.22700   0.50000 
N          N       0.19355   0.41665   0.50000 
N          N       0.58335   0.77690   0.50000 
N          N       0.22310   0.80645   0.50000 
N          N       0.80645   0.58335   0.50000 
N          N       0.41665   0.22310   0.50000 
N          N       0.77690   0.19355   0.50000 
C          C       0.16287   0.34412   0.50000 
C          C       0.65588   0.81875   0.50000 
C          C       0.18125   0.83713   0.50000 
C          C       0.83713   0.65588   0.50000 
C          C       0.34412   0.18125   0.50000 
C          C       0.81875   0.16287   0.50000 
C          C       0.17280   0.36724   0.50000 
C          C       0.63276   0.80556   0.50000 
C          C       0.19444   0.82720   0.50000 
C          C       0.82720   0.63276   0.50000 
C          C       0.36724   0.19444   0.50000 
C          C       0.80556   0.17280   0.50000 
C          C       0.27371   0.49927   0.50000 
C          C       0.50073   0.77444   0.50000 
C          C       0.22556   0.72629   0.50000 
C          C       0.72629   0.50073   0.50000 
C          C       0.49927   0.22556   0.50000 
C          C       0.77444   0.27371   0.50000 
C          C       0.21508   0.33841   0.50000 
C          C       0.66159   0.87667   0.50000 
C          C       0.12333   0.78492   0.50000 
C          C       0.78492   0.66159   0.50000 
C          C       0.33841   0.12333   0.50000 
C          C       0.87667   0.21508   0.50000 
C          C       0.29331   0.49742   0.50000 
C          C       0.50258   0.79589   0.50000 
C          C       0.20411   0.70669   0.50000 
C          C       0.70669   0.50258   0.50000 
C          C       0.49742   0.20411   0.50000 
C          C       0.79589   0.29331   0.50000 
C          C       0.31466   0.51613   0.50000 
C          C       0.48387   0.79853   0.50000 
C          C       0.20147   0.68534   0.50000 
C          C       0.68534   0.48387   0.50000 
C          C       0.51613   0.20147   0.50000 
C          C       0.79853   0.31466   0.50000 
C          C       0.31723   0.53721   0.50000 
C          C       0.46279   0.78002   0.50000 
C          C       0.21998   0.68277   0.50000 
C          C       0.68277   0.46279   0.50000 
C          C       0.53721   0.21998   0.50000 
C          C       0.78002   0.31723   0.50000 
C          C       0.29841   0.53895   0.50000 
C          C       0.46105   0.75946   0.50000 
C          C       0.24054   0.70159   0.50000 
C          C       0.70159   0.46105   0.50000 
C          C       0.53895   0.24054   0.50000 
C          C       0.75946   0.29841   0.50000 
C          C       0.27793   0.52026   0.50000 
C          C       0.47974   0.75767   0.50000 
C          C       0.24233   0.72207   0.50000 
C          C       0.72207   0.47974   0.50000 
C          C       0.52026   0.24233   0.50000 
C          C       0.75767   0.27793   0.50000 
C          C       0.12777   0.30615   0.50000 
C          C       0.69385   0.82162   0.50000 
C          C       0.17838   0.87223   0.50000 
C          C       0.87223   0.69385   0.50000 
C          C       0.30615   0.17838   0.50000 
C          C       0.82162   0.12777   0.50000 
C          C       0.10493   0.29276   0.50000 
C          C       0.70724   0.81217   0.50000 
C          C       0.18783   0.89507   0.50000 
C          C       0.89507   0.70724   0.50000 
C          C       0.29276   0.18783   0.50000 
C          C       0.81217   0.10493   0.50000 
C          C       0.09129   0.30192   0.50000 
C          C       0.69808   0.78937   0.50000 
C          C       0.21063   0.90871   0.50000 
C          C       0.90871   0.69808   0.50000 
C          C       0.30192   0.21063   0.50000 
C          C       0.78937   0.09129   0.50000 
C          C       0.10089   0.32481   0.50000 
C          C       0.67519   0.77608   0.50000 
C          C       0.22392   0.89911   0.50000 
C          C       0.89911   0.67519   0.50000 
C          C       0.32481   0.22392   0.50000 
C          C       0.77608   0.10089   0.50000 
C          C       0.12373   0.33831   0.50000 
C          C       0.66169   0.78542   0.50000 
C          C       0.21458   0.87627   0.50000 
C          C       0.87627   0.66169   0.50000 
C          C       0.33831   0.21458   0.50000 
C          C       0.78542   0.12373   0.50000 
C          C       0.39880   0.62022   0.50000 
C          C       0.37978   0.77858   0.50000 
C          C       0.22142   0.60120   0.50000 
C          C       0.60120   0.37978   0.50000 
C          C       0.62022   0.22142   0.50000 
C          C       0.77858   0.39880   0.50000 
C          C       0.41864   0.62035   0.50000 
C          C       0.37965   0.79829   0.50000 
C          C       0.20171   0.58136   0.50000 
C          C       0.58136   0.37965   0.50000 
C          C       0.62035   0.20171   0.50000 
C          C       0.79829   0.41864   0.50000 
C          C       0.39838   0.58035   0.50000 
C          C       0.41965   0.81803   0.50000 
C          C       0.18197   0.60162   0.50000 
C          C       0.60162   0.41965   0.50000 
C          C       0.58035   0.18197   0.50000 
C          C       0.81803   0.39838   0.50000 
C          C       0.26031   0.24228   0.50000 
C          C       0.75772   0.01803   0.50000 
C          C       0.98197   0.73969   0.50000 
C          C       0.73969   0.75772   0.50000 
C          C       0.24228   0.98197   0.50000 
C          C       0.01803   0.26031   0.50000 
C          C       0.28344   0.25292   0.50000 
C          C       0.74708   0.03052   0.50000 
C          C       0.96948   0.71656   0.50000 
C          C       0.71656   0.74708   0.50000 
C          C       0.25292   0.96948   0.50000 
C          C       0.03052   0.28344   0.50000 
C          C       0.28482   0.28822   0.50000 
C          C       0.71178   0.99660   0.50000 
C          C       0.00340   0.71518   0.50000 
C          C       0.71518   0.71178   0.50000 
C          C       0.28822   0.00340   0.50000 
C          C       0.99660   0.28482   0.50000 
C          C       0.78044   0.33843   0.50000 
C          C       0.66157   0.44201   0.50000 
C          C       0.55799   0.21956   0.50000 
C          C       0.21956   0.66157   0.50000 
C          C       0.33843   0.55799   0.50000 
C          C       0.44201   0.78044   0.50000 
N          N       0.79821   0.35769   0.50000 
N          N       0.64231   0.44052   0.50000 
N          N       0.55948   0.20179   0.50000 
N          N       0.20179   0.64231   0.50000 
N          N       0.35769   0.55948   0.50000 
N          N       0.44052   0.79821   0.50000 
N          N       0.79627   0.43788   0.50000 
N          N       0.56212   0.35839   0.50000 
N          N       0.64161   0.20373   0.50000 
N          N       0.20373   0.56212   0.50000 
N          N       0.43788   0.64161   0.50000 
N          N       0.35839   0.79627   0.50000 
C          C       0.81040   0.45876   0.50000 
C          C       0.54124   0.35164   0.50000 
C          C       0.64836   0.18960   0.50000 
C          C       0.18960   0.54124   0.50000 
C          C       0.45876   0.64836   0.50000 
C          C       0.35164   0.81040   0.50000 
N          N       0.29545   0.24129   0.50000 
N          N       0.75871   0.05416   0.50000 
N          N       0.94584   0.70455   0.50000 
N          N       0.70455   0.75871   0.50000 
N          N       0.24129   0.94584   0.50000 
N          N       0.05416   0.29545   0.50000 
C          C       0.28733   0.22012   0.50000 
C          C       0.77988   0.06721   0.50000 
C          C       0.93279   0.71267   0.50000 
C          C       0.71267   0.77988   0.50000 
C          C       0.22012   0.93279   0.50000 
C          C       0.06721   0.28733   0.50000 
C          C       0.25768   0.31032   0.50000 
C          C       0.68968   0.94736   0.50000 
C          C       0.05264   0.74232   0.50000 
C          C       0.74232   0.68968   0.50000 
C          C       0.31032   0.05264   0.50000 
C          C       0.94736   0.25768   0.50000 
N          N       0.24966   0.28917   0.50000 
N          N       0.71083   0.96049   0.50000 
N          N       0.03951   0.75034   0.50000 
N          N       0.75034   0.71083   0.50000 
N          N       0.28917   0.03951   0.50000 
N          N       0.96049   0.24966   0.50000 
H          H       0.19157   0.45228   0.50000 
H          H       0.54772   0.73929   0.50000 
H          H       0.26071   0.80843   0.50000 
H          H       0.80843   0.54772   0.50000 
H          H       0.45228   0.26071   0.50000 
H          H       0.73929   0.19157   0.50000 
H          H       0.22651   0.38253   0.50000 
H          H       0.61747   0.84398   0.50000 
H          H       0.15602   0.77349   0.50000 
H          H       0.77349   0.61747   0.50000 
H          H       0.38253   0.15602   0.50000 
H          H       0.84398   0.22651   0.50000 
H          H       0.24713   0.53332   0.50000 
H          H       0.46668   0.71381   0.50000 
H          H       0.28619   0.75287   0.50000 
H          H       0.75287   0.46668   0.50000 
H          H       0.53332   0.28619   0.50000 
H          H       0.71381   0.24713   0.50000 
H          H       0.23196   0.55233   0.50000 
H          H       0.44767   0.67963   0.50000 
H          H       0.32037   0.76804   0.50000 
H          H       0.76804   0.44767   0.50000 
H          H       0.55233   0.32037   0.50000 
H          H       0.67963   0.23196   0.50000 
H          H       0.16780   0.49616   0.50000 
H          H       0.50384   0.67164   0.50000 
H          H       0.32836   0.83220   0.50000 
H          H       0.83220   0.50384   0.50000 
H          H       0.49616   0.32836   0.50000 
H          H       0.67164   0.16780   0.50000 
H          H       0.18184   0.47326   0.50000 
H          H       0.52674   0.70858   0.50000 
H          H       0.29142   0.81816   0.50000 
H          H       0.81816   0.52674   0.50000 
H          H       0.47326   0.29142   0.50000 
H          H       0.70858   0.18184   0.50000 
H          H       0.24674   0.36932   0.50000 
H          H       0.63068   0.87742   0.50000 
H          H       0.12258   0.75326   0.50000 
H          H       0.75326   0.63068   0.50000 
H          H       0.36932   0.12258   0.50000 
H          H       0.87742   0.24674   0.50000 
H          H       0.26957   0.35320   0.50000 
H          H       0.64680   0.91637   0.50000 
H          H       0.08363   0.73043   0.50000 
H          H       0.73043   0.64680   0.50000 
H          H       0.35320   0.08363   0.50000 
H          H       0.91637   0.26957   0.50000 
H          H       0.21263   0.28846   0.50000 
H          H       0.71154   0.92417   0.50000 
H          H       0.07583   0.78737   0.50000 
H          H       0.78737   0.71154   0.50000 
H          H       0.28846   0.07583   0.50000 
H          H       0.92417   0.21263   0.50000 
H          H       0.18910   0.30363   0.50000 
H          H       0.69637   0.88547   0.50000 
H          H       0.11453   0.81090   0.50000 
H          H       0.81090   0.69637   0.50000 
H          H       0.30363   0.11453   0.50000 
H          H       0.88547   0.18910   0.50000 
H          H       0.36460   0.60243   0.50000 
H          H       0.39757   0.76217   0.50000 
H          H       0.23783   0.63540   0.50000 
H          H       0.63540   0.39757   0.50000 
H          H       0.60243   0.23783   0.50000 
H          H       0.76217   0.36460   0.50000 
H          H       0.43384   0.60006   0.50000 
H          H       0.39994   0.83378   0.50000 
H          H       0.16622   0.56616   0.50000 
H          H       0.56616   0.39994   0.50000 
H          H       0.60006   0.16622   0.50000 
H          H       0.83378   0.43384   0.50000 
H          H       0.23188   0.24615   0.50000 
H          H       0.75385   0.98573   0.50000 
H          H       0.01427   0.76812   0.50000 
H          H       0.76812   0.75385   0.50000 
H          H       0.24615   0.01427   0.50000 
H          H       0.98573   0.23188   0.50000 
H          H       0.31326   0.28435   0.50000 
H          H       0.71565   0.02891   0.50000 
H          H       0.97109   0.68674   0.50000 
H          H       0.68674   0.71565   0.50000 
H          H       0.28435   0.97109   0.50000 
H          H       0.02891   0.31326   0.50000 
H          H       0.17001   0.31792   0.50000 
H          H       0.68208   0.85209   0.50000 
H          H       0.14791   0.82999   0.50000 
H          H       0.82999   0.68208   0.50000 
H          H       0.31792   0.14791   0.50000 
H          H       0.85209   0.17001   0.50000 
H          H       0.26282   0.45734   0.50000 
H          H       0.54266   0.80548   0.50000 
H          H       0.19452   0.73718   0.50000 
H          H       0.73718   0.54266   0.50000 
H          H       0.45734   0.19452   0.50000 
H          H       0.80548   0.26282   0.50000 
H          H       0.17664   0.41060   0.50000 
H          H       0.58940   0.76604   0.50000 
H          H       0.23396   0.82336   0.50000 
H          H       0.82336   0.58940   0.50000 
H          H       0.41060   0.23396   0.50000 
H          H       0.76604   0.17664   0.50000 
H          H       0.16306   0.37502   0.50000 
H          H       0.62498   0.78804   0.50000 
H          H       0.21196   0.83694   0.50000 
H          H       0.83694   0.62498   0.50000 
H          H       0.37502   0.21196   0.50000 
H          H       0.78804   0.16306   0.50000 
H          H       0.29345   0.48223   0.50000 
H          H       0.51777   0.81122   0.50000 
H          H       0.18878   0.70655   0.50000 
H          H       0.70655   0.51777   0.50000 
H          H       0.48223   0.18878   0.50000 
H          H       0.81122   0.29345   0.50000 
H          H       0.32894   0.51408   0.50000 
H          H       0.48592   0.81486   0.50000 
H          H       0.18514   0.67106   0.50000 
H          H       0.67106   0.48592   0.50000 
H          H       0.51408   0.18514   0.50000 
H          H       0.81486   0.32894   0.50000 
H          H       0.29936   0.55483   0.50000 
H          H       0.44517   0.74453   0.50000 
H          H       0.25547   0.70064   0.50000 
H          H       0.70064   0.44517   0.50000 
H          H       0.55483   0.25547   0.50000 
H          H       0.74453   0.29936   0.50000 
H          H       0.26475   0.52132   0.50000 
H          H       0.47868   0.74343   0.50000 
H          H       0.25657   0.73525   0.50000 
H          H       0.73525   0.47868   0.50000 
H          H       0.52132   0.25657   0.50000 
H          H       0.74343   0.26475   0.50000 
H          H       0.13681   0.29753   0.50000 
H          H       0.70247   0.83928   0.50000 
H          H       0.16072   0.86319   0.50000 
H          H       0.86319   0.70247   0.50000 
H          H       0.29753   0.16072   0.50000 
H          H       0.83928   0.13681   0.50000 
H          H       0.09788   0.27508   0.50000 
H          H       0.72492   0.82280   0.50000 
H          H       0.17720   0.90212   0.50000 
H          H       0.90212   0.72492   0.50000 
H          H       0.27508   0.17720   0.50000 
H          H       0.82280   0.09788   0.50000 
H          H       0.09075   0.33241   0.50000 
H          H       0.66759   0.75834   0.50000 
H          H       0.24166   0.90925   0.50000 
H          H       0.90925   0.66759   0.50000 
H          H       0.33241   0.24166   0.50000 
H          H       0.75834   0.09075   0.50000 
H          H       0.12955   0.35566   0.50000 
H          H       0.64434   0.77389   0.50000 
H          H       0.22611   0.87045   0.50000 
H          H       0.87045   0.64434   0.50000 
H          H       0.35566   0.22611   0.50000 
H          H       0.77389   0.12955   0.50000 
H          H       0.39876   0.63562   0.50000 
H          H       0.36438   0.76314   0.50000 
H          H       0.23686   0.60124   0.50000 
H          H       0.60124   0.36438   0.50000 
H          H       0.63562   0.23686   0.50000 
H          H       0.76314   0.39876   0.50000 
H          H       0.39839   0.56495   0.50000 
H          H       0.43505   0.83344   0.50000 
H          H       0.16656   0.60161   0.50000 
H          H       0.60161   0.43505   0.50000 
H          H       0.56495   0.16656   0.50000 
H          H       0.83344   0.39839   0.50000 
H          H       0.25022   0.22461   0.50000 
H          H       0.77539   0.02561   0.50000 
H          H       0.97439   0.74978   0.50000 
H          H       0.74978   0.77539   0.50000 
H          H       0.22461   0.97439   0.50000 
H          H       0.02561   0.25022   0.50000 
H          H       0.29489   0.30589   0.50000 
H          H       0.69411   0.98900   0.50000 
H          H       0.01100   0.70511   0.50000 
H          H       0.70511   0.69411   0.50000 
H          H       0.30589   0.01100   0.50000 
H          H       0.98900   0.29489   0.50000 
H          H       0.76446   0.33693   0.50000 
H          H       0.66307   0.42753   0.50000 
H          H       0.57247   0.23554   0.50000 
H          H       0.23554   0.66307   0.50000 
H          H       0.33693   0.57247   0.50000 
H          H       0.42753   0.76446   0.50000 
H          H       0.82791   0.46482   0.50000 
H          H       0.53518   0.36309   0.50000 
H          H       0.63691   0.17209   0.50000 
H          H       0.17209   0.53518   0.50000 
H          H       0.46482   0.63691   0.50000 
H          H       0.36309   0.82791   0.50000 
H          H       0.26980   0.20897   0.50000 
H          H       0.79103   0.06083   0.50000 
H          H       0.93917   0.73020   0.50000 
H          H       0.73020   0.79103   0.50000 
H          H       0.20897   0.93917   0.50000 
H          H       0.06083   0.26980   0.50000 
H          H       0.27520   0.32154   0.50000 
H          H       0.67846   0.95366   0.50000 
H          H       0.04634   0.72480   0.50000 
H          H       0.72480   0.67846   0.50000 
H          H       0.32154   0.04634   0.50000 
H          H       0.95366   0.27520   0.50000 
