data_Py-DBA-COF-2
_audit_creation_date              0000-00-00
_audit_creation_method            'LanYouShi'
_symmetry_space_group_name_H-M    'P1'
_cell_length_a                    46.9413986
_cell_length_b                    46.9413986
_cell_length_c                    3.5209000
_cell_angle_alpha                 90.0000000
_cell_angle_beta                  90.0000000
_cell_angle_gamma                 120.0020981
loop_
_atom_site_label
_atom_site_type_symbol
_atom_site_fract_x
_atom_site_fract_y
_atom_site_fract_z
_atom_site_U_iso_or_equiv
_atom_site_adp_type
_atom_site_occupancy
        C1          C  0.4563081  0.4912594  1.2332351    0.00000       Uiso       1.00
        C2          C  0.4392183  0.5088874  1.2332367    0.00000       Uiso       1.00
        C3          C  0.4392710  0.4565499  1.2332357    0.00000       Uiso       1.00
        H1          H  0.4140216  0.4962915  1.2332375    0.00000       Uiso       1.00
        H2          H  0.4140986  0.4435163  1.2332357    0.00000       Uiso       1.00
        C4          C  0.3974646  0.8246210  1.2332338    0.00000       Uiso       1.00
        C5          C  0.3672822  0.7950721  1.2332350    0.00000       Uiso       1.00
        C6          C  0.3386666  0.7376268  1.2332356    0.00000       Uiso       1.00
        C7          C  0.3129555  0.7124671  1.2332361    0.00000       Uiso       1.00
        C8          C  0.3672070  0.7648554  1.2332343    0.00000       Uiso       1.00
        H3          H  0.3459251  0.7959830  1.2332349    0.00000       Uiso       1.00
        O1          O  0.4028083  0.8556575  1.2332357    0.00000       Uiso       1.00
        C9          C  0.5087406  0.9650496  1.2332366    0.00000       Uiso       1.00
       C10          C  0.4911139  0.9303306  1.2332361    0.00000       Uiso       1.00
       C11          C  0.5434501  0.9827252  1.2332354    0.00000       Uiso       1.00
        H4          H  0.5037106  0.9177314  1.2332363    0.00000       Uiso       1.00
        H5          H  0.5564846  0.9705882  1.2332357    0.00000       Uiso       1.00
       C12          C  0.1753753  0.5728282  1.2332357    0.00000       Uiso       1.00
       C13          C  0.2049223  0.5721927  1.2332363    0.00000       Uiso       1.00
       C14          C  0.2623683  0.6010213  1.2332343    0.00000       Uiso       1.00
       C15          C  0.2875274  0.6004702  1.2332348    0.00000       Uiso       1.00
       C16          C  0.2351411  0.6023341  1.2332340    0.00000       Uiso       1.00
        H6          H  0.2040086  0.5499232  1.2332380    0.00000       Uiso       1.00
        O2          O  0.1443372  0.5471361  1.2332343    0.00000       Uiso       1.00
       C17          C  0.0349544  0.5436900  1.2332355    0.00000       Uiso       1.00
       C18          C  0.0696733  0.5607788  1.2332357    0.00000       Uiso       1.00
       C19          C  0.0172842  0.5607281  1.2332348    0.00000       Uiso       1.00
        H7          H  0.0822765  0.5859756  1.2332363    0.00000       Uiso       1.00
        H8          H  0.0294254  0.5859005  1.2332331    0.00000       Uiso       1.00
       C20          C  0.4271663  0.6025378  1.2332344    0.00000       Uiso       1.00
       C21          C  0.4278016  0.6327201  1.2332340    0.00000       Uiso       1.00
       C22          C  0.3989736  0.6613358  1.2332376    0.00000       Uiso       1.00
       C23          C  0.3995269  0.6870471  1.2332385    0.00000       Uiso       1.00
       C24          C  0.3976601  0.6327954  1.2332363    0.00000       Uiso       1.00
        H9          H  0.4500709  0.6540774  1.2332337    0.00000       Uiso       1.00
        O3          O  0.4528586  0.5971940  1.2332350    0.00000       Uiso       1.00
       C25          C  0.5436904  0.5087395  1.2332363    0.00000       Uiso       1.00
       C26          C  0.5607803  0.4911116  1.2332346    0.00000       Uiso       1.00
       C27          C  0.5607276  0.5434489  1.2332350    0.00000       Uiso       1.00
       H10          H  0.5859771  0.5037076  1.2332354    0.00000       Uiso       1.00
       H11          H  0.5859001  0.5564824  1.2332344    0.00000       Uiso       1.00
       C28          C  0.6025338  0.1753778  1.2332357    0.00000       Uiso       1.00
       C29          C  0.6327161  0.2049267  1.2332368    0.00000       Uiso       1.00
       C30          C  0.6613319  0.2623721  1.2332345    0.00000       Uiso       1.00
       C31          C  0.6870430  0.2875318  1.2332335    0.00000       Uiso       1.00
       C32          C  0.6327915  0.2351434  1.2332361    0.00000       Uiso       1.00
       H12          H  0.6540733  0.2040157  1.2332356    0.00000       Uiso       1.00
        O4          O  0.5971903  0.1443414  1.2332340    0.00000       Uiso       1.00
       C33          C  0.4912577  0.0349493  1.2332361    0.00000       Uiso       1.00
       C34          C  0.5088845  0.0696683  1.2332357    0.00000       Uiso       1.00
       C35          C  0.4565482  0.0172736  1.2332356    0.00000       Uiso       1.00
       H13          H  0.4962878  0.0822676  1.2332345    0.00000       Uiso       1.00
       H14          H  0.4435138  0.0294107  1.2332349    0.00000       Uiso       1.00
       C36          C  0.8246232  0.4271706  1.2332349    0.00000       Uiso       1.00
       C37          C  0.7950763  0.4278061  1.2332357    0.00000       Uiso       1.00
       C38          C  0.7376303  0.3989775  1.2332373    0.00000       Uiso       1.00
       C39          C  0.7124713  0.3995288  1.2332355    0.00000       Uiso       1.00
       C40          C  0.7648575  0.3976646  1.2332395    0.00000       Uiso       1.00
       H15          H  0.7959899  0.4500754  1.2332331    0.00000       Uiso       1.00
        O5          O  0.8556613  0.4528627  1.2332329    0.00000       Uiso       1.00
       C41          C  0.9650440  0.4563086  1.2332364    0.00000       Uiso       1.00
       C42          C  0.9303252  0.4392198  1.2332358    0.00000       Uiso       1.00
       C43          C  0.9827144  0.4392706  1.2332360    0.00000       Uiso       1.00
       H16          H  0.9177219  0.4140231  1.2332348    0.00000       Uiso       1.00
       H17          H  0.9705733  0.4140981  1.2332357    0.00000       Uiso       1.00
       C44          C  0.5728323  0.3974612  1.2332367    0.00000       Uiso       1.00
       C45          C  0.5721970  0.3672788  1.2332366    0.00000       Uiso       1.00
       C46          C  0.6010249  0.3386631  1.2332327    0.00000       Uiso       1.00
       C47          C  0.6004718  0.3129519  1.2332314    0.00000       Uiso       1.00
       C48          C  0.6023384  0.3672035  1.2332354    0.00000       Uiso       1.00
       H18          H  0.5499275  0.3459216  1.2332364    0.00000       Uiso       1.00
        O6          O  0.5471399  0.4028051  1.2332367    0.00000       Uiso       1.00
       C49          C  0.4912591  0.4563082  1.2332351    0.00000       Uiso       1.00
       C50          C  0.5088869  0.4392183  1.2332356    0.00000       Uiso       1.00
       C51          C  0.4565497  0.4392712  1.2332355    0.00000       Uiso       1.00
       H19          H  0.4962910  0.4140216  1.2332348    0.00000       Uiso       1.00
       H20          H  0.4435161  0.4140988  1.2332336    0.00000       Uiso       1.00
       C52          C  0.8246211  0.3974651  1.2332345    0.00000       Uiso       1.00
       C53          C  0.7950721  0.3672827  1.2332364    0.00000       Uiso       1.00
       C54          C  0.7376267  0.3386671  1.2332368    0.00000       Uiso       1.00
       C55          C  0.7124671  0.3129559  1.2332340    0.00000       Uiso       1.00
       C56          C  0.7648554  0.3672075  1.2332377    0.00000       Uiso       1.00
       H21          H  0.7959830  0.3459254  1.2332338    0.00000       Uiso       1.00
        O7          O  0.8556576  0.4028087  1.2332337    0.00000       Uiso       1.00
       C57          C  0.9650496  0.5087411  1.2332366    0.00000       Uiso       1.00
       C58          C  0.9303306  0.4911143  1.2332363    0.00000       Uiso       1.00
       C59          C  0.9827251  0.5434505  1.2332348    0.00000       Uiso       1.00
       H22          H  0.9177312  0.5037110  1.2332358    0.00000       Uiso       1.00
       H23          H  0.9705880  0.5564848  1.2332338    0.00000       Uiso       1.00
       C60          C  0.5728283  0.1753758  1.2332380    0.00000       Uiso       1.00
       C61          C  0.5721929  0.2049228  1.2332368    0.00000       Uiso       1.00
       C62          C  0.6010216  0.2623689  1.2332346    0.00000       Uiso       1.00
       C63          C  0.6004705  0.2875279  1.2332333    0.00000       Uiso       1.00
       C64          C  0.6023343  0.2351415  1.2332366    0.00000       Uiso       1.00
       H24          H  0.5499236  0.2040093  1.2332363    0.00000       Uiso       1.00
        O8          O  0.5471363  0.1443377  1.2332369    0.00000       Uiso       1.00
       C65          C  0.5436901  0.0349549  1.2332363    0.00000       Uiso       1.00
       C66          C  0.5607790  0.0696737  1.2332340    0.00000       Uiso       1.00
       C67          C  0.5607285  0.0172849  1.2332348    0.00000       Uiso       1.00
       H25          H  0.5859757  0.0822768  1.2332331    0.00000       Uiso       1.00
       H26          H  0.5859010  0.0294262  1.2332348    0.00000       Uiso       1.00
       C68          C  0.6025376  0.4271665  1.2332366    0.00000       Uiso       1.00
       C69          C  0.6327201  0.4278020  1.2332351    0.00000       Uiso       1.00
       C70          C  0.6613360  0.3989742  1.2332360    0.00000       Uiso       1.00
       C71          C  0.6870473  0.3995276  1.2332356    0.00000       Uiso       1.00
       C72          C  0.6327955  0.3976606  1.2332360    0.00000       Uiso       1.00
       H27          H  0.6540772  0.4500715  1.2332319    0.00000       Uiso       1.00
        O9          O  0.5971936  0.4528588  1.2332363    0.00000       Uiso       1.00
       C73          C  0.5087395  0.5436907  1.2332358    0.00000       Uiso       1.00
       C74          C  0.4911117  0.5607807  1.2332345    0.00000       Uiso       1.00
       C75          C  0.5434489  0.5607278  1.2332358    0.00000       Uiso       1.00
       H28          H  0.5037076  0.5859775  1.2332344    0.00000       Uiso       1.00
       H29          H  0.5564826  0.5859001  1.2332367    0.00000       Uiso       1.00
       C76          C  0.1753774  0.6025336  1.2332361    0.00000       Uiso       1.00
       C77          C  0.2049263  0.6327160  1.2332356    0.00000       Uiso       1.00
       C78          C  0.2623717  0.6613316  1.2332338    0.00000       Uiso       1.00
       C79          C  0.2875313  0.6870428  1.2332357    0.00000       Uiso       1.00
       C80          C  0.2351430  0.6327912  1.2332331    0.00000       Uiso       1.00
       H30          H  0.2040155  0.6540732  1.2332360    0.00000       Uiso       1.00
       O10          O  0.1443410  0.5971901  1.2332373    0.00000       Uiso       1.00
       C81          C  0.0349490  0.4912578  1.2332360    0.00000       Uiso       1.00
       C82          C  0.0696680  0.5088844  1.2332344    0.00000       Uiso       1.00
       C83          C  0.0172735  0.4565484  1.2332349    0.00000       Uiso       1.00
       H31          H  0.0822672  0.4962878  1.2332336    0.00000       Uiso       1.00
       H32          H  0.0294108  0.4435141  1.2332345    0.00000       Uiso       1.00
       C84          C  0.4271700  0.8246230  1.2332346    0.00000       Uiso       1.00
       C85          C  0.4278054  0.7950760  1.2332335    0.00000       Uiso       1.00
       C86          C  0.3989769  0.7376301  1.2332368    0.00000       Uiso       1.00
       C87          C  0.3995281  0.7124711  1.2332385    0.00000       Uiso       1.00
       C88          C  0.3976640  0.7648573  1.2332358    0.00000       Uiso       1.00
       H33          H  0.4500749  0.7959897  1.2332333    0.00000       Uiso       1.00
       O11          O  0.4528622  0.8556612  1.2332339    0.00000       Uiso       1.00
       C89          C  0.4563082  0.9650439  1.2332355    0.00000       Uiso       1.00
       C90          C  0.4392194  0.9303252  1.2332363    0.00000       Uiso       1.00
       C91          C  0.4392698  0.9827139  1.2332348    0.00000       Uiso       1.00
       H34          H  0.4140226  0.9177219  1.2332361    0.00000       Uiso       1.00
       H35          H  0.4140974  0.9705727  1.2332345    0.00000       Uiso       1.00
       C92          C  0.3974610  0.5728323  1.2332339    0.00000       Uiso       1.00
       C93          C  0.3672785  0.5721969  1.2332358    0.00000       Uiso       1.00
       C94          C  0.3386626  0.6010248  1.2332340    0.00000       Uiso       1.00
       C95          C  0.3129513  0.6004714  1.2332344    0.00000       Uiso       1.00
       C96          C  0.3672030  0.6023383  1.2332335    0.00000       Uiso       1.00
       H36          H  0.3459214  0.5499274  1.2332379    0.00000       Uiso       1.00
       O12          O  0.4028051  0.5471402  1.2332349    0.00000       Uiso       1.00
        B1          B  0.4381224  0.8762347  1.2332354    0.00000       Uiso       1.00
        B2          B  0.1237638  0.5618759  1.2332356    0.00000       Uiso       1.00
        B3          B  0.4381193  0.5618798  1.2332355    0.00000       Uiso       1.00
        B4          B  0.5618761  0.1237641  1.2332346    0.00000       Uiso       1.00
        B5          B  0.8762348  0.4381229  1.2332340    0.00000       Uiso       1.00
        B6          B  0.5618794  0.4381193  1.2332357    0.00000       Uiso       1.00
       C97          C  0.4564155  0.5435836  1.2332349    0.00000       Uiso       1.00
       C98          C  0.4912578  0.5087411  1.2332350    0.00000       Uiso       1.00
       C99          C  0.4564177  0.9128283  1.2332360    0.00000       Uiso       1.00
      C100          C  0.4912578  0.9825152  1.2332360    0.00000       Uiso       1.00
      C101          C  0.0871703  0.5435806  1.2332339    0.00000       Uiso       1.00
      C102          C  0.0174832  0.5087404  1.2332361    0.00000       Uiso       1.00
      C103          C  0.5435831  0.4564154  1.2332349    0.00000       Uiso       1.00
      C104          C  0.5087408  0.4912578  1.2332356    0.00000       Uiso       1.00
      C105          C  0.5435808  0.0871706  1.2332339    0.00000       Uiso       1.00
      C106          C  0.5087406  0.0174836  1.2332363    0.00000       Uiso       1.00
      C107          C  0.9128283  0.4564181  1.2332358    0.00000       Uiso       1.00
      C108          C  0.9825152  0.4912583  1.2332368    0.00000       Uiso       1.00
