data_BBO-COF-2
_audit_creation_date              0000-00-00
_audit_creation_method            'LanYouShi'
_symmetry_space_group_name_H-M    'P1'
_cell_length_a                    36.2442017
_cell_length_b                    36.2442017
_cell_length_c                    3.7123001
_cell_angle_alpha                 90.0000000
_cell_angle_beta                  90.0000000
_cell_angle_gamma                 120.0000000
loop_
_atom_site_label
_atom_site_type_symbol
_atom_site_fract_x
_atom_site_fract_y
_atom_site_fract_z
_atom_site_U_iso_or_equiv
_atom_site_adp_type
_atom_site_occupancy
        C1          C  0.4994593  0.4616163  0.5000044    0.00000       Uiso       1.00
        C2          C  0.4619172  0.4999713  0.5000044    0.00000       Uiso       1.00
        C3          C  0.5383835  0.0378430  0.5000044    0.00000       Uiso       1.00
        C4          C  0.5000285  0.9619457  0.5000044    0.00000       Uiso       1.00
        C5          C  0.9621568  0.5005405  0.5000044    0.00000       Uiso       1.00
        C6          C  0.0380541  0.5380827  0.5000044    0.00000       Uiso       1.00
        C7          C  0.5005405  0.5383835  0.5000044    0.00000       Uiso       1.00
        C8          C  0.5380827  0.5000286  0.5000044    0.00000       Uiso       1.00
        C9          C  0.4616163  0.9621568  0.5000044    0.00000       Uiso       1.00
       C10          C  0.4999713  0.0380541  0.5000044    0.00000       Uiso       1.00
       C11          C  0.0378430  0.4994593  0.5000044    0.00000       Uiso       1.00
       C12          C  0.9619457  0.4619172  0.5000044    0.00000       Uiso       1.00
       C13          C  0.4601296  0.4603892  0.5000044    0.00000       Uiso       1.00
       C14          C  0.5396106  0.9997402  0.5000044    0.00000       Uiso       1.00
       C15          C  0.0002596  0.5398702  0.5000044    0.00000       Uiso       1.00
       C16          C  0.5398702  0.5396106  0.5000044    0.00000       Uiso       1.00
       C17          C  0.4603892  0.0002596  0.5000044    0.00000       Uiso       1.00
       C18          C  0.9997402  0.4601296  0.5000044    0.00000       Uiso       1.00
        O1          N  0.5075655  0.4296189  0.5000044    0.00000       Uiso       1.00
        O1          O  0.4300631  0.5086473  0.5000044    0.00000       Uiso       1.00
        O1          N  0.5703809  0.0779466  0.5000044    0.00000       Uiso       1.00
        O1          O  0.4913525  0.9214156  0.5000044    0.00000       Uiso       1.00
        O1          N  0.9220532  0.4924343  0.5000044    0.00000       Uiso       1.00
        O1          O  0.0785842  0.5699368  0.5000044    0.00000       Uiso       1.00
        O1          N  0.4924343  0.5703809  0.5000044    0.00000       Uiso       1.00
        O1          O  0.5699368  0.4913525  0.5000044    0.00000       Uiso       1.00
        O1          N  0.4296188  0.9220532  0.5000044    0.00000       Uiso       1.00
        O1          O  0.5086473  0.0785842  0.5000044    0.00000       Uiso       1.00
        O1          N  0.0779466  0.5075655  0.5000044    0.00000       Uiso       1.00
        O1          O  0.9214156  0.4300631  0.5000044    0.00000       Uiso       1.00
        B1          C  0.4493575  0.5520741  0.5000044    0.00000       Uiso       1.00
        B1          C  0.4479256  0.8972831  0.5000044    0.00000       Uiso       1.00
        B1          C  0.1027166  0.5506423  0.5000044    0.00000       Uiso       1.00
        B1          C  0.5506423  0.4479256  0.5000044    0.00000       Uiso       1.00
        B1          C  0.5520742  0.1027166  0.5000044    0.00000       Uiso       1.00
        B1          C  0.8972832  0.4493575  0.5000044    0.00000       Uiso       1.00
        H1          H  0.4319804  0.4325134  0.5000044    0.00000       Uiso       1.00
        H2          H  0.5680194  0.5674864  0.5000044    0.00000       Uiso       1.00
        H1          H  0.5674865  0.9994668  0.5000044    0.00000       Uiso       1.00
        H1          H  0.0005330  0.5680194  0.5000044    0.00000       Uiso       1.00
        H1          H  0.4325134  0.0005330  0.5000044    0.00000       Uiso       1.00
        H1          H  0.9994668  0.4319804  0.5000044    0.00000       Uiso       1.00
       C19          C  0.5516643  0.3804711  0.5000044    0.00000       Uiso       1.00
       C20          C  0.5744524  0.3584554  0.5000044    0.00000       Uiso       1.00
       C19          C  0.3821158  0.5529194  0.5000044    0.00000       Uiso       1.00
       C20          C  0.3597030  0.5753108  0.5000044    0.00000       Uiso       1.00
       C19          C  0.6195287  0.1711932  0.5000044    0.00000       Uiso       1.00
       C20          C  0.6415444  0.2159970  0.5000044    0.00000       Uiso       1.00
       C19          C  0.4470803  0.8291961  0.5000044    0.00000       Uiso       1.00
       C20          C  0.4246891  0.7843920  0.5000044    0.00000       Uiso       1.00
       C19          C  0.8288066  0.4483355  0.5000044    0.00000       Uiso       1.00
       C20          C  0.7840028  0.4255474  0.5000044    0.00000       Uiso       1.00
       C19          C  0.1708037  0.6178840  0.5000044    0.00000       Uiso       1.00
       C20          C  0.2156078  0.6402968  0.5000044    0.00000       Uiso       1.00
       C19          C  0.4483355  0.6195287  0.5000044    0.00000       Uiso       1.00
       C20          C  0.4255474  0.6415444  0.5000044    0.00000       Uiso       1.00
       C19          C  0.6178840  0.4470803  0.5000044    0.00000       Uiso       1.00
       C20          C  0.6402968  0.4246890  0.5000044    0.00000       Uiso       1.00
       C19          C  0.3804711  0.8288066  0.5000044    0.00000       Uiso       1.00
       C20          C  0.3584554  0.7840028  0.5000044    0.00000       Uiso       1.00
       C19          C  0.5529195  0.1708037  0.5000044    0.00000       Uiso       1.00
       C20          C  0.5753108  0.2156078  0.5000044    0.00000       Uiso       1.00
       C19          C  0.1711932  0.5516644  0.5000044    0.00000       Uiso       1.00
       C20          C  0.2159970  0.5744524  0.5000044    0.00000       Uiso       1.00
       C19          C  0.8291961  0.3821158  0.5000044    0.00000       Uiso       1.00
       C20          C  0.7843920  0.3597030  0.5000044    0.00000       Uiso       1.00
        H7          H  0.5190690  0.3633590  0.5000044    0.00000       Uiso       1.00
        H8          H  0.5558622  0.3263088  0.5000044    0.00000       Uiso       1.00
        H7          H  0.3652909  0.5203065  0.5000044    0.00000       Uiso       1.00
        H8          H  0.3275886  0.5564471  0.5000044    0.00000       Uiso       1.00
        H7          H  0.6366408  0.1557101  0.5000044    0.00000       Uiso       1.00
        H8          H  0.6736910  0.2295535  0.5000044    0.00000       Uiso       1.00
        H7          H  0.4796933  0.8449842  0.5000044    0.00000       Uiso       1.00
        H8          H  0.4435526  0.7711412  0.5000044    0.00000       Uiso       1.00
        H7          H  0.8442898  0.4809308  0.5000044    0.00000       Uiso       1.00
        H8          H  0.7704463  0.4441376  0.5000044    0.00000       Uiso       1.00
        H7          H  0.1550155  0.6347088  0.5000044    0.00000       Uiso       1.00
        H8          H  0.2288585  0.6724111  0.5000044    0.00000       Uiso       1.00
        H7          H  0.4809308  0.6366408  0.5000044    0.00000       Uiso       1.00
        H8          H  0.4441376  0.6736910  0.5000044    0.00000       Uiso       1.00
        H7          H  0.6347088  0.4796933  0.5000044    0.00000       Uiso       1.00
        H8          H  0.6724111  0.4435526  0.5000044    0.00000       Uiso       1.00
        H7          H  0.3633590  0.8442898  0.5000044    0.00000       Uiso       1.00
        H8          H  0.3263088  0.7704463  0.5000044    0.00000       Uiso       1.00
        H7          H  0.5203065  0.1550155  0.5000044    0.00000       Uiso       1.00
        H8          H  0.5564472  0.2288585  0.5000044    0.00000       Uiso       1.00
        H7          H  0.1557101  0.5190690  0.5000044    0.00000       Uiso       1.00
        H8          H  0.2295535  0.5558622  0.5000044    0.00000       Uiso       1.00
        H7          H  0.8449843  0.3652910  0.5000044    0.00000       Uiso       1.00
        H8          H  0.7711412  0.3275887  0.5000044    0.00000       Uiso       1.00
        C1          C  0.6435902  0.2867627  0.5000044    0.00000       Uiso       1.00
        C2          C  0.7132371  0.3568275  0.5000044    0.00000       Uiso       1.00
        C3          C  0.6431723  0.3564096  0.5000044    0.00000       Uiso       1.00
        C4          C  0.5746377  0.1476399  0.5000044    0.00000       Uiso       1.00
        C5          C  0.8523599  0.4269978  0.5000044    0.00000       Uiso       1.00
        C6          C  0.5730020  0.4253621  0.5000044    0.00000       Uiso       1.00
        C7          C  0.6207426  0.2406534  0.5000044    0.00000       Uiso       1.00
        C8          C  0.7593465  0.3800893  0.5000044    0.00000       Uiso       1.00
        C9          C  0.6199105  0.3792572  0.5000044    0.00000       Uiso       1.00
       C10          C  0.6887623  0.3116300  0.5000044    0.00000       Uiso       1.00
       C11          C  0.6883698  0.3771323  0.5000044    0.00000       Uiso       1.00
       C12          C  0.6228675  0.3112375  0.5000044    0.00000       Uiso       1.00
        C1          C  0.3564096  0.7132371  0.5000044    0.00000       Uiso       1.00
        C2          C  0.2867627  0.6431723  0.5000044    0.00000       Uiso       1.00
        C3          C  0.3568275  0.6435902  0.5000044    0.00000       Uiso       1.00
        C4          C  0.4253621  0.8523598  0.5000044    0.00000       Uiso       1.00
        C5          C  0.1476399  0.5730020  0.5000044    0.00000       Uiso       1.00
        C6          C  0.4269978  0.5746377  0.5000044    0.00000       Uiso       1.00
        C7          C  0.3792572  0.7593464  0.5000044    0.00000       Uiso       1.00
        C8          C  0.2406533  0.6199105  0.5000044    0.00000       Uiso       1.00
        C9          C  0.3800893  0.6207426  0.5000044    0.00000       Uiso       1.00
       C10          C  0.3112375  0.6883698  0.5000044    0.00000       Uiso       1.00
       C11          C  0.3116300  0.6228675  0.5000044    0.00000       Uiso       1.00
       C12          C  0.3771323  0.6887623  0.5000044    0.00000       Uiso       1.00
        H1          H  0.5910520  0.2951876  0.5000044    0.00000       Uiso       1.00
        H2          H  0.7048122  0.2958644  0.5000044    0.00000       Uiso       1.00
        H3          H  0.7041354  0.4089478  0.5000044    0.00000       Uiso       1.00
        H1          H  0.4089478  0.7048122  0.5000044    0.00000       Uiso       1.00
        H2          H  0.2951876  0.7041354  0.5000044    0.00000       Uiso       1.00
        H3          H  0.2958644  0.5910520  0.5000044    0.00000       Uiso       1.00
