data_Py-DHPh_COF
_audit_creation_date              0000-00-00
_audit_creation_method            'LanYouShi'
_symmetry_space_group_name_H-M    'P1'
_cell_length_a                    35.5954018
_cell_length_b                    33.2472992
_cell_length_c                    7.4145999
_cell_angle_alpha                 90.0000000
_cell_angle_beta                  90.0000000
_cell_angle_gamma                 90.0000000
loop_
_atom_site_label
_atom_site_type_symbol
_atom_site_fract_x
_atom_site_fract_y
_atom_site_fract_z
_atom_site_U_iso_or_equiv
_atom_site_adp_type
_atom_site_occupancy
        C1          C  0.0397799  0.4629122  0.4672673    0.00000       Uiso       1.00
        C2          C  0.5397799  0.9629121  0.4672673    0.00000       Uiso       1.00
        C3          C  0.9602200  0.4629122  0.5327327    0.00000       Uiso       1.00
        C4          C  0.4602200  0.9629121  0.5327327    0.00000       Uiso       1.00
        C5          C  0.9602200  0.5370879  0.5327327    0.00000       Uiso       1.00
        C6          C  0.4602200  0.0370878  0.5327327    0.00000       Uiso       1.00
        C7          C  0.0397799  0.5370879  0.4672673    0.00000       Uiso       1.00
        C8          C  0.5397799  0.0370878  0.4672673    0.00000       Uiso       1.00
        C9          C  0.9808115  0.4267202  0.5192514    0.00000       Uiso       1.00
       C10          C  0.4808115  0.9267202  0.5192514    0.00000       Uiso       1.00
       C11          C  0.0191884  0.4267202  0.4807486    0.00000       Uiso       1.00
       C12          C  0.5191884  0.9267202  0.4807486    0.00000       Uiso       1.00
       C13          C  0.0191884  0.5732799  0.4807486    0.00000       Uiso       1.00
       C14          C  0.5191884  0.0732798  0.4807486    0.00000       Uiso       1.00
       C15          C  0.9808115  0.5732799  0.5192514    0.00000       Uiso       1.00
       C16          C  0.4808115  0.0732798  0.5192514    0.00000       Uiso       1.00
       C17          C  0.9208463  0.4628201  0.5671252    0.00000       Uiso       1.00
       C18          C  0.4208463  0.9628202  0.5671252    0.00000       Uiso       1.00
       C19          C  0.0791537  0.4628201  0.4328748    0.00000       Uiso       1.00
       C20          C  0.5791537  0.9628202  0.4328748    0.00000       Uiso       1.00
       C21          C  0.0791537  0.5371798  0.4328748    0.00000       Uiso       1.00
       C22          C  0.5791537  0.0371799  0.4328748    0.00000       Uiso       1.00
       C23          C  0.9208463  0.5371798  0.5671252    0.00000       Uiso       1.00
       C24          C  0.4208463  0.0371799  0.5671252    0.00000       Uiso       1.00
       C25          C  0.8976441  0.4281260  0.5636728    0.00000       Uiso       1.00
       C26          C  0.3976441  0.9281260  0.5636728    0.00000       Uiso       1.00
       C27          C  0.1023558  0.4281260  0.4363272    0.00000       Uiso       1.00
       C28          C  0.6023558  0.9281260  0.4363272    0.00000       Uiso       1.00
       C29          C  0.1023558  0.5718740  0.4363272    0.00000       Uiso       1.00
       C30          C  0.6023558  0.0718740  0.4363272    0.00000       Uiso       1.00
       C31          C  0.8976441  0.5718740  0.5636728    0.00000       Uiso       1.00
       C32          C  0.3976441  0.0718740  0.5636728    0.00000       Uiso       1.00
       C33          C  0.8709662  0.4206430  0.7014948    0.00000       Uiso       1.00
       C34          C  0.3709662  0.9206430  0.7014948    0.00000       Uiso       1.00
       C35          C  0.1290338  0.4206430  0.2985052    0.00000       Uiso       1.00
       C36          C  0.6290337  0.9206430  0.2985052    0.00000       Uiso       1.00
       C37          C  0.1290338  0.5793570  0.2985052    0.00000       Uiso       1.00
       C38          C  0.6290337  0.0793570  0.2985052    0.00000       Uiso       1.00
       C39          C  0.8709662  0.5793570  0.7014948    0.00000       Uiso       1.00
       C40          C  0.3709662  0.0793570  0.7014948    0.00000       Uiso       1.00
       C41          C  0.8462698  0.3877218  0.6908554    0.00000       Uiso       1.00
       C42          C  0.3462698  0.8877219  0.6908554    0.00000       Uiso       1.00
       C43          C  0.1537302  0.3877218  0.3091446    0.00000       Uiso       1.00
       C44          C  0.6537302  0.8877219  0.3091446    0.00000       Uiso       1.00
       C45          C  0.1537302  0.6122782  0.3091446    0.00000       Uiso       1.00
       C46          C  0.6537302  0.1122782  0.3091446    0.00000       Uiso       1.00
       C47          C  0.8462698  0.6122782  0.6908554    0.00000       Uiso       1.00
       C48          C  0.3462698  0.1122782  0.6908554    0.00000       Uiso       1.00
       C49          C  0.8474952  0.3616008  0.5408744    0.00000       Uiso       1.00
       C50          C  0.3474952  0.8616008  0.5408744    0.00000       Uiso       1.00
       C51          C  0.1525048  0.3616008  0.4591256    0.00000       Uiso       1.00
       C52          C  0.6525048  0.8616008  0.4591256    0.00000       Uiso       1.00
       C53          C  0.1525048  0.6383993  0.4591256    0.00000       Uiso       1.00
       C54          C  0.6525048  0.1383992  0.4591256    0.00000       Uiso       1.00
       C55          C  0.8474952  0.6383993  0.5408744    0.00000       Uiso       1.00
       C56          C  0.3474952  0.1383992  0.5408744    0.00000       Uiso       1.00
       C57          C  0.8742678  0.3683782  0.4047662    0.00000       Uiso       1.00
       C58          C  0.3742678  0.8683782  0.4047662    0.00000       Uiso       1.00
       C59          C  0.1257322  0.3683782  0.5952337    0.00000       Uiso       1.00
       C60          C  0.6257322  0.8683782  0.5952337    0.00000       Uiso       1.00
       C61          C  0.1257322  0.6316219  0.5952337    0.00000       Uiso       1.00
       C62          C  0.6257322  0.1316219  0.5952337    0.00000       Uiso       1.00
       C63          C  0.8742678  0.6316219  0.4047662    0.00000       Uiso       1.00
       C64          C  0.3742678  0.1316219  0.4047662    0.00000       Uiso       1.00
       C65          C  0.8989338  0.4012858  0.4154258    0.00000       Uiso       1.00
       C66          C  0.3989338  0.9012859  0.4154258    0.00000       Uiso       1.00
       C67          C  0.1010662  0.4012858  0.5845742    0.00000       Uiso       1.00
       C68          C  0.6010662  0.9012859  0.5845742    0.00000       Uiso       1.00
       C69          C  0.1010662  0.5987142  0.5845742    0.00000       Uiso       1.00
       C70          C  0.6010662  0.0987142  0.5845742    0.00000       Uiso       1.00
       C71          C  0.8989338  0.5987142  0.4154258    0.00000       Uiso       1.00
       C72          C  0.3989338  0.0987142  0.4154258    0.00000       Uiso       1.00
        H1          H  0.9682844  0.3993868  0.5380664    0.00000       Uiso       1.00
        H2          H  0.4682844  0.8993868  0.5380664    0.00000       Uiso       1.00
        H3          H  0.0317156  0.3993868  0.4619336    0.00000       Uiso       1.00
        H4          H  0.5317155  0.8993868  0.4619336    0.00000       Uiso       1.00
        H5          H  0.0317156  0.6006132  0.4619336    0.00000       Uiso       1.00
        H6          H  0.5317155  0.1006132  0.4619336    0.00000       Uiso       1.00
        H7          H  0.9682844  0.6006132  0.5380664    0.00000       Uiso       1.00
        H8          H  0.4682844  0.1006132  0.5380664    0.00000       Uiso       1.00
        H9          H  0.8694355  0.4391051  0.8118002    0.00000       Uiso       1.00
       H10          H  0.3694355  0.9391051  0.8118002    0.00000       Uiso       1.00
       H11          H  0.1305645  0.4391051  0.1881997    0.00000       Uiso       1.00
       H12          H  0.6305645  0.9391051  0.1881997    0.00000       Uiso       1.00
       H13          H  0.1305645  0.5608950  0.1881997    0.00000       Uiso       1.00
       H14          H  0.6305645  0.0608950  0.1881997    0.00000       Uiso       1.00
       H15          H  0.8694355  0.5608950  0.8118002    0.00000       Uiso       1.00
       H16          H  0.3694355  0.0608950  0.8118002    0.00000       Uiso       1.00
       H17          H  0.8273911  0.3832930  0.7924792    0.00000       Uiso       1.00
       H18          H  0.3273912  0.8832930  0.7924792    0.00000       Uiso       1.00
       H19          H  0.1726088  0.3832930  0.2075208    0.00000       Uiso       1.00
       H20          H  0.6726088  0.8832930  0.2075208    0.00000       Uiso       1.00
       H21          H  0.1726088  0.6167071  0.2075208    0.00000       Uiso       1.00
       H22          H  0.6726088  0.1167071  0.2075208    0.00000       Uiso       1.00
       H23          H  0.8273911  0.6167071  0.7924792    0.00000       Uiso       1.00
       H24          H  0.3273912  0.1167071  0.7924792    0.00000       Uiso       1.00
       H25          H  0.8755075  0.3495077  0.2957246    0.00000       Uiso       1.00
       H26          H  0.3755076  0.8495077  0.2957246    0.00000       Uiso       1.00
       H27          H  0.1244924  0.3495077  0.7042754    0.00000       Uiso       1.00
       H28          H  0.6244924  0.8495077  0.7042754    0.00000       Uiso       1.00
       H29          H  0.1244924  0.6504923  0.7042754    0.00000       Uiso       1.00
       H30          H  0.6244924  0.1504924  0.7042754    0.00000       Uiso       1.00
       H31          H  0.8755075  0.6504923  0.2957246    0.00000       Uiso       1.00
       H32          H  0.3755076  0.1504924  0.2957246    0.00000       Uiso       1.00
       H33          H  0.9172034  0.4060488  0.3109007    0.00000       Uiso       1.00
       H34          H  0.4172034  0.9060488  0.3109007    0.00000       Uiso       1.00
       H35          H  0.0827966  0.4060488  0.6890994    0.00000       Uiso       1.00
       H36          H  0.5827965  0.9060488  0.6890994    0.00000       Uiso       1.00
       H37          H  0.0827966  0.5939512  0.6890994    0.00000       Uiso       1.00
       H38          H  0.5827965  0.0939512  0.6890994    0.00000       Uiso       1.00
       H39          H  0.9172034  0.5939512  0.3109007    0.00000       Uiso       1.00
       H40          H  0.4172034  0.0939512  0.3109007    0.00000       Uiso       1.00
       C73          C  0.9025480  0.5000000  0.5929423    0.00000       Uiso       1.00
       C74          C  0.4025480  0.0000000  0.5929423    0.00000       Uiso       1.00
       C75          C  0.0974520  0.5000000  0.4070577    0.00000       Uiso       1.00
       C76          C  0.5974520  0.0000000  0.4070577    0.00000       Uiso       1.00
       C77          C  0.0198635  0.5000000  0.4838641    0.00000       Uiso       1.00
       C78          C  0.5198635  0.0000000  0.4838641    0.00000       Uiso       1.00
       C79          C  0.9801365  0.5000000  0.5161359    0.00000       Uiso       1.00
       C80          C  0.4801365  0.0000000  0.5161359    0.00000       Uiso       1.00
       H41          H  0.8741860  0.5000000  0.6177828    0.00000       Uiso       1.00
       H42          H  0.3741860  0.0000000  0.6177828    0.00000       Uiso       1.00
       H43          H  0.1258140  0.5000000  0.3822171    0.00000       Uiso       1.00
       H44          H  0.6258140  0.0000000  0.3822171    0.00000       Uiso       1.00
        N1          N  0.3241279  0.1697374  0.5137323    0.00000       Uiso       1.00
        N2          N  0.8241279  0.6697374  0.5137323    0.00000       Uiso       1.00
        N3          N  0.6758720  0.1697374  0.4862677    0.00000       Uiso       1.00
        N4          N  0.1758720  0.6697374  0.4862677    0.00000       Uiso       1.00
        N5          N  0.6758720  0.8302626  0.4862677    0.00000       Uiso       1.00
        N6          N  0.1758720  0.3302626  0.4862677    0.00000       Uiso       1.00
        N7          N  0.3241279  0.8302626  0.5137323    0.00000       Uiso       1.00
        N8          N  0.8241279  0.3302626  0.5137323    0.00000       Uiso       1.00
       C81          C  0.2956662  0.1847019  0.6129254    0.00000       Uiso       1.00
       C82          C  0.7956662  0.6847019  0.6129254    0.00000       Uiso       1.00
       C83          C  0.7043338  0.1847019  0.3870746    0.00000       Uiso       1.00
       C84          C  0.2043338  0.6847019  0.3870746    0.00000       Uiso       1.00
       C85          C  0.7043338  0.8152981  0.3870746    0.00000       Uiso       1.00
       C86          C  0.2043338  0.3152981  0.3870746    0.00000       Uiso       1.00
       C87          C  0.2956662  0.8152981  0.6129254    0.00000       Uiso       1.00
       C88          C  0.7956662  0.3152981  0.6129254    0.00000       Uiso       1.00
       C89          C  0.2735597  0.2172258  0.5530382    0.00000       Uiso       1.00
       C90          C  0.7735596  0.7172258  0.5530382    0.00000       Uiso       1.00
       C91          C  0.7264403  0.2172258  0.4469618    0.00000       Uiso       1.00
       C92          C  0.2264403  0.7172258  0.4469618    0.00000       Uiso       1.00
       C93          C  0.7264403  0.7827742  0.4469618    0.00000       Uiso       1.00
       C94          C  0.2264403  0.2827742  0.4469618    0.00000       Uiso       1.00
       C95          C  0.2735597  0.7827742  0.5530382    0.00000       Uiso       1.00
       C96          C  0.7735596  0.2827742  0.5530382    0.00000       Uiso       1.00
       C97          C  0.2444920  0.2312752  0.6671049    0.00000       Uiso       1.00
       C98          C  0.7444920  0.7312752  0.6671049    0.00000       Uiso       1.00
       C99          C  0.7555079  0.2312752  0.3328952    0.00000       Uiso       1.00
      C100          C  0.2555080  0.7312752  0.3328952    0.00000       Uiso       1.00
      C101          C  0.7555079  0.7687248  0.3328952    0.00000       Uiso       1.00
      C102          C  0.2555080  0.2687248  0.3328952    0.00000       Uiso       1.00
      C103          C  0.2444920  0.7687248  0.6671049    0.00000       Uiso       1.00
      C104          C  0.7444920  0.2687248  0.6671049    0.00000       Uiso       1.00
      C105          C  0.2212690  0.2634509  0.6161504    0.00000       Uiso       1.00
      C106          C  0.7212690  0.7634509  0.6161504    0.00000       Uiso       1.00
      C107          C  0.7787310  0.2634509  0.3838496    0.00000       Uiso       1.00
      C108          C  0.2787310  0.7634509  0.3838496    0.00000       Uiso       1.00
      C109          C  0.7787310  0.7365491  0.3838496    0.00000       Uiso       1.00
      C110          C  0.2787310  0.2365491  0.3838496    0.00000       Uiso       1.00
      C111          C  0.2212690  0.7365491  0.6161504    0.00000       Uiso       1.00
      C112          C  0.7212690  0.2365491  0.6161504    0.00000       Uiso       1.00
       H45          H  0.2398700  0.2181289  0.7899430    0.00000       Uiso       1.00
       H46          H  0.7398700  0.7181289  0.7899430    0.00000       Uiso       1.00
       H47          H  0.7601300  0.2181289  0.2100570    0.00000       Uiso       1.00
       H48          H  0.2601300  0.7181289  0.2100570    0.00000       Uiso       1.00
       H49          H  0.7601300  0.7818711  0.2100570    0.00000       Uiso       1.00
       H50          H  0.2601300  0.2818711  0.2100570    0.00000       Uiso       1.00
       H51          H  0.2398700  0.7818711  0.7899430    0.00000       Uiso       1.00
       H52          H  0.7398700  0.2818711  0.7899430    0.00000       Uiso       1.00
        O1          O  0.1946923  0.2741768  0.7375743    0.00000       Uiso       1.00
        O2          O  0.6946923  0.7741768  0.7375743    0.00000       Uiso       1.00
        O3          O  0.8053076  0.2741768  0.2624256    0.00000       Uiso       1.00
        O4          O  0.3053077  0.7741768  0.2624256    0.00000       Uiso       1.00
        O5          O  0.8053076  0.7258232  0.2624256    0.00000       Uiso       1.00
        O6          O  0.3053077  0.2258232  0.2624256    0.00000       Uiso       1.00
        O7          O  0.1946923  0.7258232  0.7375743    0.00000       Uiso       1.00
        O8          O  0.6946923  0.2258232  0.7375743    0.00000       Uiso       1.00
       H53          H  0.2898385  0.1718860  0.7351976    0.00000       Uiso       1.00
       H54          H  0.1917969  0.2595297  0.8512645    0.00000       Uiso       1.00
       H55          H  0.7898385  0.6718860  0.7351976    0.00000       Uiso       1.00
       H56          H  0.6917970  0.7595297  0.8512645    0.00000       Uiso       1.00
       H57          H  0.7101614  0.1718860  0.2648024    0.00000       Uiso       1.00
       H58          H  0.8082030  0.2595297  0.1487355    0.00000       Uiso       1.00
       H59          H  0.2101615  0.6718860  0.2648024    0.00000       Uiso       1.00
       H60          H  0.3082030  0.7595297  0.1487355    0.00000       Uiso       1.00
       H61          H  0.7101614  0.8281140  0.2648024    0.00000       Uiso       1.00
       H62          H  0.8082030  0.7404703  0.1487355    0.00000       Uiso       1.00
       H63          H  0.2101615  0.3281140  0.2648024    0.00000       Uiso       1.00
       H64          H  0.3082030  0.2404703  0.1487355    0.00000       Uiso       1.00
       H65          H  0.2898385  0.8281140  0.7351976    0.00000       Uiso       1.00
       H66          H  0.1917969  0.7404703  0.8512645    0.00000       Uiso       1.00
       H67          H  0.7898385  0.3281140  0.7351976    0.00000       Uiso       1.00
       H68          H  0.6917970  0.2404703  0.8512645    0.00000       Uiso       1.00
