data_Py-MV-DBA-COF
_audit_creation_date              0000-00-00
_audit_creation_method            'LanYouShi'
_symmetry_space_group_name_H-M    'P1'
_cell_length_a                    44.5523987
_cell_length_b                    44.5523987
_cell_length_c                    3.5150001
_cell_angle_alpha                 90.0000000
_cell_angle_beta                  90.0000000
_cell_angle_gamma                 120.0000000
loop_
_atom_site_label
_atom_site_type_symbol
_atom_site_fract_x
_atom_site_fract_y
_atom_site_fract_z
_atom_site_U_iso_or_equiv
_atom_site_adp_type
_atom_site_occupancy
        C1          C  0.4450262  0.4997208  0.0000000    0.00000       Uiso       1.00
        C2          C  0.4270196  0.5182940  0.0000000    0.00000       Uiso       1.00
        C3          C  0.4270763  0.4631510  0.0000000    0.00000       Uiso       1.00
        H1          H  0.4004723  0.5050234  0.0000000    0.00000       Uiso       1.00
        H2          H  0.4005546  0.4494194  0.0000000    0.00000       Uiso       1.00
        C4          C  0.3830318  0.7973568  0.0000000    0.00000       Uiso       1.00
        C5          C  0.3512235  0.7662309  0.0000000    0.00000       Uiso       1.00
        C6          C  0.3211345  0.7056803  0.0000000    0.00000       Uiso       1.00
        C7          C  0.2943223  0.6788696  0.0000000    0.00000       Uiso       1.00
        C8          C  0.3511562  0.7344071  0.0000000    0.00000       Uiso       1.00
        H3          H  0.3287161  0.7671800  0.0000000    0.00000       Uiso       1.00
        O1          O  0.3886653  0.8300580  0.0000000    0.00000       Uiso       1.00
        C9          C  0.5370928  0.5181364  0.0000000    0.00000       Uiso       1.00
       C10          C  0.5550993  0.4995631  0.0000000    0.00000       Uiso       1.00
       C11          C  0.5550427  0.5547063  0.0000000    0.00000       Uiso       1.00
        H4          H  0.5816466  0.5128338  0.0000000    0.00000       Uiso       1.00
        H5          H  0.5815644  0.5684382  0.0000000    0.00000       Uiso       1.00
       C12          C  0.5991072  0.1669075  0.0000000    0.00000       Uiso       1.00
       C13          C  0.6309074  0.1980397  0.0000000    0.00000       Uiso       1.00
       C14          C  0.6610560  0.2585644  0.0000000    0.00000       Uiso       1.00
       C15          C  0.6881444  0.2850728  0.0000000    0.00000       Uiso       1.00
       C16          C  0.6309863  0.2298765  0.0000000    0.00000       Uiso       1.00
        H6          H  0.6534095  0.1970793  0.0000000    0.00000       Uiso       1.00
        O2          O  0.5934768  0.1342070  0.0000000    0.00000       Uiso       1.00
       C17          C  0.4818515  0.4628952  0.0000000    0.00000       Uiso       1.00
       C18          C  0.5004247  0.4448886  0.0000000    0.00000       Uiso       1.00
       C19          C  0.4452816  0.4449454  0.0000000    0.00000       Uiso       1.00
        H7          H  0.4871542  0.4183413  0.0000000    0.00000       Uiso       1.00
        H8          H  0.4315496  0.4184237  0.0000000    0.00000       Uiso       1.00
       C20          C  0.8330931  0.4009027  0.0000000    0.00000       Uiso       1.00
       C21          C  0.8019620  0.3691018  0.0000000    0.00000       Uiso       1.00
       C22          C  0.7414373  0.3389501  0.0000000    0.00000       Uiso       1.00
       C23          C  0.7149303  0.3118602  0.0000000    0.00000       Uiso       1.00
       C24          C  0.7701242  0.3690209  0.0000000    0.00000       Uiso       1.00
        H9          H  0.8029238  0.3466005  0.0000000    0.00000       Uiso       1.00
        O3          O  0.8657941  0.4065343  0.0000000    0.00000       Uiso       1.00
       C25          C  0.5002674  0.5549619  0.0000000    0.00000       Uiso       1.00
       C26          C  0.4816943  0.5729685  0.0000000    0.00000       Uiso       1.00
       C27          C  0.5368372  0.5729117  0.0000000    0.00000       Uiso       1.00
       H10          H  0.4949650  0.5995158  0.0000000    0.00000       Uiso       1.00
       H11          H  0.5505689  0.5994334  0.0000000    0.00000       Uiso       1.00
       C28          C  0.2026441  0.6169770  0.0000000    0.00000       Uiso       1.00
       C29          C  0.2337714  0.6487842  0.0000000    0.00000       Uiso       1.00
       C30          C  0.2655941  0.6488491  0.0000000    0.00000       Uiso       1.00
       H12          H  0.2328243  0.6712926  0.0000000    0.00000       Uiso       1.00
        O4          O  0.1699434  0.6113452  0.0000000    0.00000       Uiso       1.00
        B1          B  0.4258724  0.8517340  0.0000000    0.00000       Uiso       1.00
        B2          B  0.5562698  0.1125284  0.0000000    0.00000       Uiso       1.00
       C31          C  0.4451385  0.5548498  0.0000000    0.00000       Uiso       1.00
       C32          C  0.4818491  0.5181389  0.0000000    0.00000       Uiso       1.00
       C33          C  0.5369807  0.4630072  0.0000000    0.00000       Uiso       1.00
       C34          C  0.5002698  0.4997182  0.0000000    0.00000       Uiso       1.00
       C35          C  0.5002791  0.9453053  0.0000000    0.00000       Uiso       1.00
       C36          C  0.4817059  0.9087254  0.0000000    0.00000       Uiso       1.00
       C37          C  0.5368488  0.9639251  0.0000000    0.00000       Uiso       1.00
       H13          H  0.4949765  0.8954487  0.0000000    0.00000       Uiso       1.00
       H14          H  0.5505804  0.9511350  0.0000000    0.00000       Uiso       1.00
       C38          C  0.2026430  0.5856749  0.0000000    0.00000       Uiso       1.00
       C39          C  0.2337690  0.5849925  0.0000000    0.00000       Uiso       1.00
       C40          C  0.2943196  0.6154540  0.0000000    0.00000       Uiso       1.00
       C41          C  0.3211303  0.6154526  0.0000000    0.00000       Uiso       1.00
       C42          C  0.2655928  0.6167490  0.0000000    0.00000       Uiso       1.00
       H15          H  0.2328200  0.5615361  0.0000000    0.00000       Uiso       1.00
        O5          O  0.1699418  0.5586071  0.0000000    0.00000       Uiso       1.00
       C43          C  0.4818635  0.0189564  0.0000000    0.00000       Uiso       1.00
       C44          C  0.5004367  0.0555362  0.0000000    0.00000       Uiso       1.00
       C45          C  0.4452935  0.0003364  0.0000000    0.00000       Uiso       1.00
       H16          H  0.4871661  0.0688128  0.0000000    0.00000       Uiso       1.00
       H17          H  0.4315617  0.0131262  0.0000000    0.00000       Uiso       1.00
       C46          C  0.8330923  0.4321997  0.0000000    0.00000       Uiso       1.00
       C47          C  0.8019602  0.4328677  0.0000000    0.00000       Uiso       1.00
       C48          C  0.7414355  0.4024916  0.0000000    0.00000       Uiso       1.00
       C49          C  0.7149271  0.4030716  0.0000000    0.00000       Uiso       1.00
       C50          C  0.7701234  0.4011098  0.0000000    0.00000       Uiso       1.00
       H18          H  0.8029206  0.4563302  0.0000000    0.00000       Uiso       1.00
        O6          O  0.8657929  0.4592699  0.0000000    0.00000       Uiso       1.00
       C51          C  0.5371047  0.0189563  0.0000000    0.00000       Uiso       1.00
       C52          C  0.5551113  0.0555362  0.0000000    0.00000       Uiso       1.00
       C53          C  0.5550545  0.0003362  0.0000000    0.00000       Uiso       1.00
       H19          H  0.5816586  0.0688128  0.0000000    0.00000       Uiso       1.00
       H20          H  0.5815762  0.0131259  0.0000000    0.00000       Uiso       1.00
       C54          C  0.5990971  0.4321904  0.0000000    0.00000       Uiso       1.00
       C55          C  0.6308981  0.4328601  0.0000000    0.00000       Uiso       1.00
       C56          C  0.6610498  0.4024872  0.0000000    0.00000       Uiso       1.00
       C57          C  0.6881397  0.4030701  0.0000000    0.00000       Uiso       1.00
       C58          C  0.6309790  0.4011033  0.0000000    0.00000       Uiso       1.00
       H21          H  0.6533994  0.4563233  0.0000000    0.00000       Uiso       1.00
        O7          O  0.5934656  0.4592597  0.0000000    0.00000       Uiso       1.00
       C59          C  0.4450381  0.9453055  0.0000000    0.00000       Uiso       1.00
       C60          C  0.4270314  0.9087257  0.0000000    0.00000       Uiso       1.00
       C61          C  0.4270881  0.9639254  0.0000000    0.00000       Uiso       1.00
       H22          H  0.4004841  0.8954492  0.0000000    0.00000       Uiso       1.00
       H23          H  0.4005665  0.9511355  0.0000000    0.00000       Uiso       1.00
       C62          C  0.3830229  0.5856671  0.0000000    0.00000       Uiso       1.00
       C63          C  0.3512157  0.5849871  0.0000000    0.00000       Uiso       1.00
       C64          C  0.3511508  0.6167449  0.0000000    0.00000       Uiso       1.00
       H24          H  0.3287073  0.5615316  0.0000000    0.00000       Uiso       1.00
        O8          O  0.3886548  0.5585982  0.0000000    0.00000       Uiso       1.00
        B3          B  0.1482659  0.5741382  0.0000000    0.00000       Uiso       1.00
        B4          B  0.8874715  0.4437414  0.0000000    0.00000       Uiso       1.00
       C65          C  0.4451501  0.8902887  0.0000000    0.00000       Uiso       1.00
       C66          C  0.4818609  0.9637101  0.0000000    0.00000       Uiso       1.00
       C67          C  0.5369927  0.0739735  0.0000000    0.00000       Uiso       1.00
       C68          C  0.5002818  0.0005517  0.0000000    0.00000       Uiso       1.00
       C69          C  0.0546947  0.5549737  0.0000000    0.00000       Uiso       1.00
       C70          C  0.0912744  0.5729803  0.0000000    0.00000       Uiso       1.00
       C71          C  0.0360748  0.5729237  0.0000000    0.00000       Uiso       1.00
       H25          H  0.1045512  0.5995277  0.0000000    0.00000       Uiso       1.00
       H26          H  0.0488648  0.5994453  0.0000000    0.00000       Uiso       1.00
       C72          C  0.4143251  0.6169681  0.0000000    0.00000       Uiso       1.00
       C73          C  0.4150074  0.6487764  0.0000000    0.00000       Uiso       1.00
       C74          C  0.3845459  0.6788654  0.0000000    0.00000       Uiso       1.00
       C75          C  0.3845473  0.7056776  0.0000000    0.00000       Uiso       1.00
       C76          C  0.3832509  0.6488437  0.0000000    0.00000       Uiso       1.00
       H27          H  0.4384638  0.6712838  0.0000000    0.00000       Uiso       1.00
        O9          O  0.4413927  0.6113346  0.0000000    0.00000       Uiso       1.00
       C77          C  0.9810435  0.4629071  0.0000000    0.00000       Uiso       1.00
       C78          C  0.9444637  0.4449006  0.0000000    0.00000       Uiso       1.00
       C79          C  0.9996635  0.4449572  0.0000000    0.00000       Uiso       1.00
       H28          H  0.9311871  0.4183533  0.0000000    0.00000       Uiso       1.00
       H29          H  0.9868737  0.4184355  0.0000000    0.00000       Uiso       1.00
       C80          C  0.5678002  0.4008927  0.0000000    0.00000       Uiso       1.00
       C81          C  0.5671322  0.3690926  0.0000000    0.00000       Uiso       1.00
       C82          C  0.5975083  0.3389440  0.0000000    0.00000       Uiso       1.00
       C83          C  0.5969282  0.3118554  0.0000000    0.00000       Uiso       1.00
       C84          C  0.5988901  0.3690136  0.0000000    0.00000       Uiso       1.00
       H30          H  0.5436698  0.3465904  0.0000000    0.00000       Uiso       1.00
       O10          O  0.5407300  0.4065230  0.0000000    0.00000       Uiso       1.00
       C85          C  0.9810436  0.5181484  0.0000000    0.00000       Uiso       1.00
       C86          C  0.9444637  0.4995751  0.0000000    0.00000       Uiso       1.00
       C87          C  0.9996637  0.5547183  0.0000000    0.00000       Uiso       1.00
       H31          H  0.9311871  0.5128458  0.0000000    0.00000       Uiso       1.00
       H32          H  0.9868740  0.5684503  0.0000000    0.00000       Uiso       1.00
       C88          C  0.5678096  0.1669068  0.0000000    0.00000       Uiso       1.00
       C89          C  0.5671397  0.1980380  0.0000000    0.00000       Uiso       1.00
       C90          C  0.5975127  0.2585626  0.0000000    0.00000       Uiso       1.00
       C91          C  0.5969298  0.2850696  0.0000000    0.00000       Uiso       1.00
       C92          C  0.5988966  0.2298757  0.0000000    0.00000       Uiso       1.00
       H33          H  0.5436766  0.1970761  0.0000000    0.00000       Uiso       1.00
       O11          O  0.5407401  0.1342058  0.0000000    0.00000       Uiso       1.00
       C93          C  0.0546945  0.4997325  0.0000000    0.00000       Uiso       1.00
       C94          C  0.0912741  0.5183055  0.0000000    0.00000       Uiso       1.00
       C95          C  0.0360745  0.4631627  0.0000000    0.00000       Uiso       1.00
       H34          H  0.1045507  0.5050349  0.0000000    0.00000       Uiso       1.00
       H35          H  0.0488645  0.4494310  0.0000000    0.00000       Uiso       1.00
       C96          C  0.4143328  0.7973558  0.0000000    0.00000       Uiso       1.00
       C97          C  0.4150128  0.7662285  0.0000000    0.00000       Uiso       1.00
       C98          C  0.3832550  0.7344058  0.0000000    0.00000       Uiso       1.00
       H36          H  0.4384683  0.7671757  0.0000000    0.00000       Uiso       1.00
       O12          O  0.4414017  0.8300564  0.0000000    0.00000       Uiso       1.00
        B5          B  0.4258617  0.5741276  0.0000000    0.00000       Uiso       1.00
        B6          B  0.5562584  0.4437301  0.0000000    0.00000       Uiso       1.00
       C99          C  0.1097113  0.5548614  0.0000000    0.00000       Uiso       1.00
      C100          C  0.0362898  0.5181507  0.0000000    0.00000       Uiso       1.00
      C101          C  0.9260263  0.4630192  0.0000000    0.00000       Uiso       1.00
      C102          C  0.9994482  0.4997301  0.0000000    0.00000       Uiso       1.00
