data_crystal

_cell_length_a    27.93700
_cell_length_b    27.93700
_cell_length_c    74.80120
_cell_angle_alpha 90.00000
_cell_angle_beta  90.00000
_cell_angle_gamma 90.00000

_space_group_name_Hall 'P 1'
_space_group_name_H-M_alt  'P 1'

loop_
_symmetry_equiv_pos_as_xyz
'x,y,z' 

loop_
_atom_site_label
_atom_site_type_symbol
_atom_site_fract_x
_atom_site_fract_y
_atom_site_fract_z
C          C       0.09371   0.99992   0.99194 
C          C       0.40629   0.50008   0.49194 
C          C       0.00008   0.59371   0.24194 
C          C       0.49992   0.90629   0.74194 
C          C       0.90629   0.50008   0.25806 
C          C       0.59371   0.99992   0.75806 
C          C       0.99992   0.90629   0.00806 
C          C       0.50008   0.59371   0.50806 
C          C       0.59371   0.49992   0.49194 
C          C       0.90629   0.00008   0.99194 
C          C       0.50008   0.09371   0.74194 
C          C       0.99992   0.40629   0.24194 
C          C       0.40629   0.00008   0.75806 
C          C       0.09371   0.49992   0.25806 
C          C       0.49992   0.40629   0.50806 
C          C       0.00008   0.09371   0.00806 
C          C       0.12923   0.99989   0.97774 
C          C       0.37077   0.50011   0.47774 
C          C       0.00011   0.62923   0.22774 
C          C       0.49989   0.87077   0.72774 
C          C       0.87077   0.50011   0.27226 
C          C       0.62923   0.99989   0.77226 
C          C       0.99989   0.87077   0.02226 
C          C       0.50011   0.62923   0.52226 
C          C       0.62923   0.49989   0.47774 
C          C       0.87077   0.00011   0.97774 
C          C       0.50011   0.12923   0.72774 
C          C       0.99989   0.37077   0.22774 
C          C       0.37077   0.00011   0.77226 
C          C       0.12923   0.49989   0.27226 
C          C       0.49989   0.37077   0.52226 
C          C       0.00011   0.12923   0.02226 
C          C       0.11170   0.99989   0.95977 
C          C       0.38830   0.50011   0.45977 
C          C       0.00011   0.61170   0.20977 
C          C       0.49989   0.88830   0.70977 
C          C       0.88830   0.50011   0.29023 
C          C       0.61170   0.99989   0.79023 
C          C       0.99989   0.88830   0.04023 
C          C       0.50011   0.61170   0.54023 
C          C       0.61170   0.49989   0.45977 
C          C       0.88830   0.00011   0.95977 
C          C       0.50011   0.11170   0.70977 
C          C       0.99989   0.38830   0.20977 
C          C       0.38830   0.00011   0.79023 
C          C       0.11170   0.49989   0.29023 
C          C       0.49989   0.38830   0.54023 
C          C       0.00011   0.11170   0.04023 
C          C       0.05949   0.99994   0.95605 
C          C       0.44051   0.50006   0.45605 
C          C       0.00006   0.55949   0.20605 
C          C       0.49994   0.94051   0.70605 
C          C       0.94051   0.50006   0.29395 
C          C       0.55949   0.99994   0.79395 
C          C       0.99994   0.94051   0.04395 
C          C       0.50006   0.55949   0.54395 
C          C       0.55949   0.49994   0.45605 
C          C       0.94051   0.00006   0.95605 
C          C       0.50006   0.05949   0.70605 
C          C       0.99994   0.44051   0.20605 
C          C       0.44051   0.00006   0.79395 
C          C       0.05949   0.49994   0.29395 
C          C       0.49994   0.44051   0.54395 
C          C       0.00006   0.05949   0.04395 
C          C       0.02588   0.99998   0.97037 
C          C       0.47412   0.50002   0.47037 
C          C       0.00002   0.52588   0.22037 
C          C       0.49998   0.97412   0.72037 
C          C       0.97412   0.50002   0.27963 
C          C       0.52588   0.99998   0.77963 
C          C       0.99998   0.97412   0.02963 
C          C       0.50002   0.52588   0.52963 
C          C       0.52588   0.49998   0.47037 
C          C       0.97412   0.00002   0.97037 
C          C       0.50002   0.02588   0.72037 
C          C       0.99998   0.47412   0.22037 
C          C       0.47412   0.00002   0.77963 
C          C       0.02588   0.49998   0.27963 
C          C       0.49998   0.47412   0.52963 
C          C       0.00002   0.02588   0.02963 
C          C       0.04212   0.99997   0.98793 
C          C       0.45788   0.50003   0.48793 
C          C       0.00003   0.54212   0.23793 
C          C       0.49997   0.95788   0.73793 
C          C       0.95788   0.50003   0.26207 
C          C       0.54212   0.99997   0.76207 
C          C       0.99997   0.95788   0.01207 
C          C       0.50003   0.54212   0.51207 
C          C       0.54212   0.49997   0.48793 
C          C       0.95788   0.00003   0.98793 
C          C       0.50003   0.04212   0.73793 
C          C       0.99997   0.45788   0.23793 
C          C       0.45788   0.00003   0.76207 
C          C       0.04212   0.49997   0.26207 
C          C       0.49997   0.45788   0.51207 
C          C       0.00003   0.04212   0.01207 
C          C       0.14825   0.99988   0.94494 
C          C       0.35175   0.50012   0.44494 
C          C       0.00012   0.64825   0.19494 
C          C       0.49988   0.85175   0.69494 
C          C       0.85175   0.50012   0.30506 
C          C       0.64825   0.99988   0.80506 
C          C       0.99988   0.85175   0.05506 
C          C       0.50012   0.64825   0.55506 
C          C       0.64825   0.49988   0.44494 
C          C       0.85175   0.00012   0.94494 
C          C       0.50012   0.14825   0.69494 
C          C       0.99988   0.35175   0.19494 
C          C       0.35175   0.00012   0.80506 
C          C       0.14825   0.49988   0.30506 
C          C       0.49988   0.35175   0.55506 
C          C       0.00012   0.14825   0.05506 
C          C       0.14839   0.99985   0.89554 
C          C       0.35161   0.50015   0.39554 
C          C       0.00015   0.64839   0.14554 
C          C       0.49985   0.85161   0.64554 
C          C       0.85161   0.50015   0.35446 
C          C       0.64839   0.99985   0.85446 
C          C       0.99985   0.85161   0.10446 
C          C       0.50015   0.64839   0.60446 
C          C       0.64839   0.49985   0.39554 
C          C       0.85161   0.00015   0.89554 
C          C       0.50015   0.14839   0.64554 
C          C       0.99985   0.35161   0.14554 
C          C       0.35161   0.00015   0.85446 
C          C       0.14839   0.49985   0.35446 
C          C       0.49985   0.35161   0.60446 
C          C       0.00015   0.14839   0.10446 
C          C       0.18128   0.99989   0.88096 
C          C       0.31872   0.50011   0.38096 
C          C       0.00011   0.68128   0.13096 
C          C       0.49989   0.81872   0.63096 
C          C       0.81872   0.50011   0.36904 
C          C       0.68128   0.99989   0.86904 
C          C       0.99989   0.81872   0.11904 
C          C       0.50011   0.68128   0.61904 
C          C       0.68128   0.49989   0.38096 
C          C       0.81872   0.00011   0.88096 
C          C       0.50011   0.18128   0.63096 
C          C       0.99989   0.31872   0.13096 
C          C       0.31872   0.00011   0.86904 
C          C       0.18128   0.49989   0.36904 
C          C       0.49989   0.31872   0.61904 
C          C       0.00011   0.18128   0.11904 
C          C       0.23427   0.99998   0.88287 
C          C       0.26573   0.50002   0.38287 
C          C       0.00002   0.73427   0.13287 
C          C       0.49998   0.76573   0.63287 
C          C       0.76573   0.50002   0.36713 
C          C       0.73427   0.99998   0.86713 
C          C       0.99998   0.76573   0.11713 
C          C       0.50002   0.73427   0.61713 
C          C       0.73427   0.49998   0.38287 
C          C       0.76573   0.00002   0.88287 
C          C       0.50002   0.23427   0.63287 
C          C       0.99998   0.26573   0.13287 
C          C       0.26573   0.00002   0.86713 
C          C       0.23427   0.49998   0.36713 
C          C       0.49998   0.26573   0.61713 
C          C       0.00002   0.23427   0.11713 
C          C       0.25319   0.00002   0.90092 
C          C       0.24681   0.49998   0.40092 
C          C       0.99998   0.75319   0.15092 
C          C       0.50002   0.74681   0.65092 
C          C       0.74681   0.49998   0.34908 
C          C       0.75319   0.00002   0.84908 
C          C       0.00002   0.74681   0.09908 
C          C       0.49998   0.75319   0.59908 
C          C       0.75319   0.50002   0.40092 
C          C       0.74681   0.99998   0.90092 
C          C       0.49998   0.25319   0.65092 
C          C       0.00002   0.24681   0.15092 
C          C       0.24681   0.99998   0.84908 
C          C       0.25319   0.50002   0.34908 
C          C       0.50002   0.24681   0.59908 
C          C       0.99998   0.25319   0.09908 
C          C       0.21975   0.99998   0.91544 
C          C       0.28025   0.50002   0.41544 
C          C       0.00002   0.71975   0.16544 
C          C       0.49998   0.78025   0.66544 
C          C       0.78025   0.50002   0.33456 
C          C       0.71975   0.99998   0.83456 
C          C       0.99998   0.78025   0.08456 
C          C       0.50002   0.71975   0.58456 
C          C       0.71975   0.49998   0.41544 
C          C       0.78025   0.00002   0.91544 
C          C       0.50002   0.21975   0.66544 
C          C       0.99998   0.28025   0.16544 
C          C       0.28025   0.00002   0.83456 
C          C       0.21975   0.49998   0.33456 
C          C       0.49998   0.28025   0.58456 
C          C       0.00002   0.21975   0.08456 
C          C       0.16742   0.99989   0.91288 
C          C       0.33258   0.50011   0.41288 
C          C       0.00011   0.66742   0.16288 
C          C       0.49989   0.83258   0.66288 
C          C       0.83258   0.50011   0.33712 
C          C       0.66742   0.99989   0.83712 
C          C       0.99989   0.83258   0.08712 
C          C       0.50011   0.66742   0.58712 
C          C       0.66742   0.49989   0.41288 
C          C       0.83258   0.00011   0.91288 
C          C       0.50011   0.16742   0.66288 
C          C       0.99989   0.33258   0.16288 
C          C       0.33258   0.00011   0.83712 
C          C       0.16742   0.49989   0.33712 
C          C       0.49989   0.33258   0.58712 
C          C       0.00011   0.16742   0.08712 
N          N       0.50013   0.63298   0.57234 
N          N       0.99987   0.86702   0.07234 
N          N       0.36702   0.00013   0.82234 
N          N       0.13298   0.49987   0.32234 
N          N       0.49987   0.86702   0.67766 
N          N       0.00013   0.63298   0.17766 
N          N       0.63298   0.49987   0.42766 
N          N       0.86702   0.00013   0.92766 
N          N       0.00013   0.13298   0.07234 
N          N       0.49987   0.36702   0.57234 
N          N       0.86702   0.50013   0.32234 
N          N       0.63298   0.99987   0.82234 
N          N       0.99987   0.36702   0.17766 
N          N       0.50013   0.13298   0.67766 
N          N       0.13298   0.99987   0.92766 
N          N       0.36702   0.50013   0.42766 
O          O       0.50020   0.68174   0.51913 
O          O       0.99980   0.81826   0.01913 
O          O       0.31826   0.00020   0.76913 
O          O       0.18174   0.49980   0.26913 
O          O       0.49980   0.81826   0.73087 
O          O       0.00020   0.68174   0.23087 
O          O       0.68174   0.49980   0.48087 
O          O       0.81826   0.00020   0.98087 
O          O       0.00020   0.18174   0.01913 
O          O       0.49980   0.31826   0.51913 
O          O       0.81826   0.50020   0.26913 
O          O       0.68174   0.99980   0.76913 
O          O       0.99980   0.31826   0.23087 
O          O       0.50020   0.18174   0.73087 
O          O       0.18174   0.99980   0.98087 
O          O       0.31826   0.50020   0.48087 
C          C       0.49984   0.69685   0.50082 
C          C       0.00016   0.80315   0.00082 
C          C       0.30315   0.99984   0.75082 
C          C       0.19685   0.50016   0.25082 
C          C       0.50016   0.80315   0.74918 
C          C       0.99984   0.69685   0.24918 
C          C       0.69685   0.50016   0.49918 
C          C       0.80315   0.99984   0.99918 
C          C       0.99984   0.19685   0.00082 
C          C       0.50016   0.30315   0.50082 
C          C       0.80315   0.49984   0.25082 
C          C       0.69685   0.00016   0.75082 
C          C       0.00016   0.30315   0.24918 
C          C       0.49984   0.19685   0.74918 
C          C       0.19685   0.00016   0.99918 
C          C       0.30315   0.49984   0.49918 
C          C       0.49989   0.80784   0.59407 
C          C       0.00011   0.69216   0.09407 
C          C       0.19216   0.99989   0.84407 
C          C       0.30784   0.50011   0.34407 
C          C       0.50011   0.69216   0.65593 
C          C       0.99989   0.80784   0.15593 
C          C       0.80784   0.50011   0.40593 
C          C       0.69216   0.99989   0.90593 
C          C       0.99989   0.30784   0.09407 
C          C       0.50011   0.19216   0.59407 
C          C       0.69216   0.49989   0.34407 
C          C       0.80784   0.00011   0.84407 
C          C       0.00011   0.19216   0.15593 
C          C       0.49989   0.30784   0.65593 
C          C       0.30784   0.00011   0.90593 
C          C       0.19216   0.49989   0.40593 
H          H       0.51860   0.66871   0.49221 
H          H       0.98140   0.83129   0.99221 
H          H       0.33129   0.01860   0.74221 
H          H       0.16871   0.48140   0.24221 
H          H       0.48140   0.83129   0.75779 
H          H       0.01860   0.66871   0.25779 
H          H       0.66871   0.48140   0.50779 
H          H       0.83129   0.01860   0.00779 
H          H       0.01860   0.16871   0.99221 
H          H       0.48140   0.33129   0.49221 
H          H       0.83129   0.51860   0.24221 
H          H       0.66871   0.98140   0.74221 
H          H       0.98140   0.33129   0.25779 
H          H       0.51860   0.16871   0.75779 
H          H       0.16871   0.98140   0.00779 
H          H       0.33129   0.51860   0.50779 
H          H       0.51948   0.73261   0.49955 
H          H       0.98052   0.76739   0.99955 
H          H       0.26739   0.01948   0.74955 
H          H       0.23261   0.48052   0.24955 
H          H       0.48052   0.76739   0.75045 
H          H       0.01948   0.73261   0.25045 
H          H       0.73261   0.48052   0.50045 
H          H       0.76739   0.01948   0.00045 
H          H       0.01948   0.23261   0.99955 
H          H       0.48052   0.26739   0.49955 
H          H       0.76739   0.51948   0.24955 
H          H       0.73261   0.98052   0.74955 
H          H       0.98052   0.26739   0.25045 
H          H       0.51948   0.23261   0.75045 
H          H       0.23261   0.98052   0.00045 
H          H       0.26739   0.51948   0.50045 
H          H       0.46115   0.70127   0.49611 
H          H       0.03885   0.79873   0.99611 
H          H       0.29873   0.96115   0.74611 
H          H       0.20127   0.53885   0.24611 
H          H       0.53885   0.79873   0.75389 
H          H       0.96115   0.70127   0.25389 
H          H       0.70127   0.53885   0.50389 
H          H       0.79873   0.96115   0.00389 
H          H       0.96115   0.20127   0.99611 
H          H       0.53885   0.29873   0.49611 
H          H       0.79873   0.46115   0.24611 
H          H       0.70127   0.03885   0.74611 
H          H       0.03885   0.29873   0.25389 
H          H       0.46115   0.20127   0.75389 
H          H       0.20127   0.03885   0.00389 
H          H       0.29873   0.46115   0.50389 
H          H       0.48048   0.82903   0.60495 
H          H       0.01952   0.67097   0.10495 
H          H       0.17097   0.98048   0.85495 
H          H       0.32903   0.51952   0.35495 
H          H       0.51952   0.67097   0.64505 
H          H       0.98048   0.82903   0.14505 
H          H       0.82903   0.51952   0.39505 
H          H       0.67097   0.98048   0.89505 
H          H       0.98048   0.32903   0.10495 
H          H       0.51952   0.17097   0.60495 
H          H       0.67097   0.48048   0.35495 
H          H       0.82903   0.01952   0.85495 
H          H       0.01952   0.17097   0.14505 
H          H       0.48048   0.32903   0.64505 
H          H       0.32903   0.01952   0.89505 
H          H       0.17097   0.48048   0.39505 
H          H       0.48066   0.81307   0.58073 
H          H       0.01934   0.68693   0.08073 
H          H       0.18693   0.98066   0.83073 
H          H       0.31307   0.51934   0.33073 
H          H       0.51934   0.68693   0.66927 
H          H       0.98066   0.81307   0.16927 
H          H       0.81307   0.51934   0.41927 
H          H       0.68693   0.98066   0.91927 
H          H       0.98066   0.31307   0.08073 
H          H       0.51934   0.18693   0.58073 
H          H       0.68693   0.48066   0.33073 
H          H       0.81307   0.01934   0.83073 
H          H       0.01934   0.18693   0.16927 
H          H       0.48066   0.31307   0.66927 
H          H       0.31307   0.01934   0.91927 
H          H       0.18693   0.48066   0.41927 
H          H       0.53847   0.82118   0.59289 
H          H       0.96153   0.67882   0.09289 
H          H       0.17882   0.03847   0.84289 
H          H       0.32118   0.46153   0.34289 
H          H       0.46153   0.67882   0.65711 
H          H       0.03847   0.82118   0.15711 
H          H       0.82118   0.46153   0.40711 
H          H       0.67882   0.03847   0.90711 
H          H       0.03847   0.32118   0.09289 
H          H       0.46153   0.17882   0.59289 
H          H       0.67882   0.53847   0.34289 
H          H       0.82118   0.96153   0.84289 
H          H       0.96153   0.17882   0.15711 
H          H       0.53847   0.32118   0.65711 
H          H       0.32118   0.96153   0.90711 
H          H       0.17882   0.53847   0.40711 
H          H       0.10567   0.99990   0.00655 
H          H       0.39433   0.50010   0.50655 
H          H       0.00010   0.60567   0.25655 
H          H       0.49990   0.89433   0.75655 
H          H       0.89433   0.50010   0.24345 
H          H       0.60567   0.99990   0.74345 
H          H       0.99990   0.89433   0.99345 
H          H       0.50010   0.60567   0.49345 
H          H       0.60567   0.49990   0.50655 
H          H       0.89433   0.00010   0.00655 
H          H       0.50010   0.10567   0.75655 
H          H       0.99990   0.39433   0.25655 
H          H       0.39433   0.00010   0.74345 
H          H       0.10567   0.49990   0.24345 
H          H       0.49990   0.39433   0.49345 
H          H       0.00010   0.10567   0.99345 
H          H       0.04604   0.99995   0.94163 
H          H       0.45396   0.50005   0.44163 
H          H       0.00005   0.54604   0.19163 
H          H       0.49995   0.95396   0.69163 
H          H       0.95396   0.50005   0.30837 
H          H       0.54604   0.99995   0.80837 
H          H       0.99995   0.95396   0.05837 
H          H       0.50005   0.54604   0.55837 
H          H       0.54604   0.49995   0.44163 
H          H       0.95396   0.00005   0.94163 
H          H       0.50005   0.04604   0.69163 
H          H       0.99995   0.45396   0.19163 
H          H       0.45396   0.00005   0.80837 
H          H       0.04604   0.49995   0.30837 
H          H       0.49995   0.45396   0.55837 
H          H       0.00005   0.04604   0.05837 
H          H       0.18821   0.99988   0.94827 
H          H       0.31179   0.50012   0.44827 
H          H       0.00012   0.68821   0.19827 
H          H       0.49988   0.81179   0.69827 
H          H       0.81179   0.50012   0.30173 
H          H       0.68821   0.99988   0.80173 
H          H       0.99988   0.81179   0.05173 
H          H       0.50012   0.68821   0.55173 
H          H       0.68821   0.49988   0.44827 
H          H       0.81179   0.00012   0.94827 
H          H       0.50012   0.18821   0.69827 
H          H       0.99988   0.31179   0.19827 
H          H       0.31179   0.00012   0.80173 
H          H       0.18821   0.49988   0.30173 
H          H       0.49988   0.31179   0.55173 
H          H       0.00012   0.18821   0.05173 
H          H       0.10808   0.99979   0.89287 
H          H       0.39192   0.50021   0.39287 
H          H       0.00021   0.60808   0.14287 
H          H       0.49979   0.89192   0.64287 
H          H       0.89192   0.50021   0.35713 
H          H       0.60808   0.99979   0.85713 
H          H       0.99979   0.89192   0.10713 
H          H       0.50021   0.60808   0.60713 
H          H       0.60808   0.49979   0.39287 
H          H       0.89192   0.00021   0.89287 
H          H       0.50021   0.10808   0.64287 
H          H       0.99979   0.39192   0.14287 
H          H       0.39192   0.00021   0.85713 
H          H       0.10808   0.49979   0.35713 
H          H       0.49979   0.39192   0.60713 
H          H       0.00021   0.10808   0.10713 
C          C       0.16733   0.99985   0.86660 
C          C       0.33267   0.50015   0.36660 
C          C       0.00015   0.66733   0.11660 
C          C       0.49985   0.83267   0.61660 
C          C       0.83267   0.50015   0.38340 
C          C       0.66733   0.99985   0.88340 
C          C       0.99985   0.83267   0.13340 
C          C       0.50015   0.66733   0.63340 
C          C       0.66733   0.49985   0.36660 
C          C       0.83267   0.00015   0.86660 
C          C       0.50015   0.16733   0.61660 
C          C       0.99985   0.33267   0.11660 
C          C       0.33267   0.00015   0.88340 
C          C       0.16733   0.49985   0.38340 
C          C       0.49985   0.33267   0.63340 
C          C       0.00015   0.16733   0.13340 
H          H       0.23331   0.00002   0.92985 
H          H       0.26669   0.49998   0.42985 
H          H       0.99998   0.73331   0.17985 
H          H       0.50002   0.76669   0.67985 
H          H       0.76669   0.49998   0.32015 
H          H       0.73331   0.00002   0.82015 
H          H       0.00002   0.76669   0.07015 
H          H       0.49998   0.73331   0.57015 
H          H       0.73331   0.50002   0.42985 
H          H       0.76669   0.99998   0.92985 
H          H       0.49998   0.23331   0.67985 
H          H       0.00002   0.26669   0.17985 
H          H       0.26669   0.99998   0.82015 
H          H       0.23331   0.50002   0.32015 
H          H       0.50002   0.26669   0.57015 
H          H       0.99998   0.23331   0.07015 
H          H       0.51907   0.80586   0.60756 
H          H       0.98093   0.69414   0.10756 
H          H       0.19414   0.01907   0.85756 
H          H       0.30586   0.48093   0.35756 
H          H       0.48093   0.69414   0.64244 
H          H       0.01907   0.80586   0.14244 
H          H       0.80586   0.48093   0.39244 
H          H       0.69414   0.01907   0.89244 
H          H       0.01907   0.30586   0.10756 
H          H       0.48093   0.19414   0.60756 
H          H       0.69414   0.51907   0.35756 
H          H       0.80586   0.98093   0.85756 
H          H       0.98093   0.19414   0.14244 
H          H       0.51907   0.30586   0.64244 
H          H       0.30586   0.98093   0.89244 
H          H       0.19414   0.51907   0.39244 
H          H       0.51921   0.86872   0.61605 
H          H       0.98079   0.63128   0.11605 
H          H       0.13128   0.01921   0.86605 
H          H       0.36872   0.48079   0.36605 
H          H       0.48079   0.63128   0.63395 
H          H       0.01921   0.86872   0.13395 
H          H       0.86872   0.48079   0.38395 
H          H       0.63128   0.01921   0.88395 
H          H       0.01921   0.36872   0.11605 
H          H       0.48079   0.13128   0.61605 
H          H       0.63128   0.51921   0.36605 
H          H       0.86872   0.98079   0.86605 
H          H       0.98079   0.13128   0.13395 
H          H       0.51921   0.36872   0.63395 
H          H       0.36872   0.98079   0.88395 
H          H       0.13128   0.51921   0.38395 
H          H       0.46124   0.83738   0.61184 
H          H       0.03876   0.66262   0.11184 
H          H       0.16262   0.96124   0.86184 
H          H       0.33738   0.53876   0.36184 
H          H       0.53876   0.66262   0.63816 
H          H       0.96124   0.83738   0.13816 
H          H       0.83738   0.53876   0.38816 
H          H       0.66262   0.96124   0.88816 
H          H       0.96124   0.33738   0.11184 
H          H       0.53876   0.16262   0.61184 
H          H       0.66262   0.46124   0.36184 
H          H       0.83738   0.03876   0.86184 
H          H       0.03876   0.16262   0.13816 
H          H       0.46124   0.33738   0.63816 
H          H       0.33738   0.03876   0.88816 
H          H       0.16262   0.46124   0.38816 
C          C       0.00000   0.00000   0.00000 
C          C       0.50000   0.50000   0.50000 
C          C       0.00000   0.50000   0.25000 
C          C       0.50000   0.00000   0.75000 
