data_crystal

_cell_length_a    36.89700
_cell_length_b    36.89700
_cell_length_c    7.80020
_cell_angle_alpha 90.00000
_cell_angle_beta  90.00000
_cell_angle_gamma 120.00000

_space_group_name_Hall 'P 1'
_space_group_name_H-M_alt  'P 1'

loop_
_symmetry_equiv_pos_as_xyz
'x,y,z' 

loop_
_atom_site_label
_atom_site_type_symbol
_atom_site_fract_x
_atom_site_fract_y
_atom_site_fract_z
C          C       0.35869   0.64841   0.36993 
C          C       0.64131   0.35159   0.36993 
H          H       0.31875   0.76098   0.37952 
H          H       0.68125   0.23902   0.37952 
C          C       0.37745   0.69163   0.34288 
C          C       0.62255   0.30837   0.34288 
C          C       0.48870   0.89044   0.09361 
C          C       0.51130   0.10956   0.09361 
C          C       0.38406   0.62710   0.35840 
C          C       0.61594   0.37290   0.35840 
C          C       0.50282   0.83154   0.10014 
C          C       0.49718   0.16846   0.10014 
C          C       0.36674   0.58695   0.28496 
C          C       0.63326   0.41305   0.28496 
C          C       0.49296   0.79548   0.00425 
C          C       0.50704   0.20452   0.00425 
C          C       0.39051   0.56700   0.26194 
C          C       0.60949   0.43300   0.26194 
C          C       0.52141   0.78111   0.48997 
C          C       0.47859   0.21889   0.48997 
C          C       0.43318   0.58905   0.31048 
C          C       0.56682   0.41095   0.31048 
C          C       0.56087   0.80352   0.06546 
C          C       0.43913   0.19648   0.06546 
C          C       0.45041   0.62861   0.38609 
C          C       0.54959   0.37139   0.38609 
C          C       0.57183   0.84024   0.15577 
C          C       0.42817   0.15976   0.15577 
C          C       0.42605   0.64731   0.41166 
C          C       0.57395   0.35269   0.41166 
C          C       0.54300   0.85406   0.17403 
C          C       0.45700   0.14594   0.17403 
N          N       0.45762   0.57158   0.28832 
N          N       0.54238   0.42842   0.28832 
H          H       0.51960   0.90881   0.03889 
H          H       0.48040   0.09119   0.03889 
C          C       0.44310   0.53296   0.21911 
C          C       0.55690   0.46704   0.21911 
H          H       0.46339   0.77833   0.44002 
H          H       0.53661   0.22167   0.44002 
C          C       0.47189   0.51571   0.20614 
C          C       0.52811   0.48429   0.20614 
H          H       0.51312   0.75299   0.41751 
H          H       0.48688   0.24701   0.41751 
C          C       0.45688   0.47234   0.20602 
C          C       0.54312   0.52766   0.20602 
H          H       0.58306   0.79262   0.05291 
H          H       0.41694   0.20738   0.05291 
C          C       0.48462   0.45692   0.20514 
C          C       0.51538   0.54308   0.20514 
H          H       0.60245   0.85767   0.21419 
H          H       0.39755   0.14233   0.21419 
H          H       0.41092   0.70954   0.32899 
H          H       0.58908   0.29046   0.32899 
H          H       0.55185   0.88203   0.24862 
H          H       0.44815   0.11797   0.24862 
H          H       0.33471   0.57194   0.24508 
H          H       0.66529   0.42806   0.24508 
C          C       0.29075   0.64462   0.37950 
C          C       0.70925   0.35538   0.37950 
C          C       0.37370   0.52568   0.19519 
C          C       0.62630   0.47432   0.19519 
C          C       0.31519   0.62524   0.39302 
C          C       0.68481   0.37476   0.39302 
H          H       0.48282   0.64487   0.42669 
H          H       0.51718   0.35513   0.42669 
C          C       0.24382   0.61954   0.38121 
C          C       0.75618   0.38046   0.38121 
H          H       0.44020   0.67758   0.47379 
H          H       0.55980   0.32242   0.47379 
C          C       0.22031   0.63721   0.31782 
C          C       0.77969   0.36279   0.31782 
C          C       0.40098   0.50991   0.16899 
C          C       0.59902   0.49009   0.16899 
C          C       0.17636   0.61303   0.29636 
C          C       0.82364   0.38697   0.29636 
H          H       0.47187   0.42336   0.20680 
H          H       0.52813   0.57664   0.20680 
C          C       0.15627   0.57023   0.34263 
C          C       0.84373   0.42977   0.34263 
C          C       0.32794   0.49588   0.16990 
C          C       0.67206   0.50412   0.16990 
C          C       0.17899   0.55324   0.41529 
C          C       0.82101   0.44676   0.41529 
C          C       0.30222   0.50611   0.07250 
C          C       0.69778   0.49389   0.07250 
C          C       0.22209   0.57758   0.43660 
C          C       0.77791   0.42242   0.43660 
C          C       0.25946   0.47777   0.05475 
C          C       0.74054   0.52223   0.05475 
N          N       0.11442   0.54528   0.32123 
N          N       0.88558   0.45472   0.32123 
C          C       0.24201   0.43805   0.12811 
C          C       0.75799   0.56195   0.12811 
C          C       0.08961   0.55920   0.25469 
C          C       0.91039   0.44080   0.25469 
C          C       0.26731   0.42672   0.21973 
C          C       0.73269   0.57328   0.21973 
C          C       0.04368   0.52928   0.24059 
C          C       0.95632   0.47072   0.24059 
C          C       0.30988   0.45544   0.24156 
C          C       0.69012   0.54456   0.24156 
C          C       0.01424   0.54292   0.23978 
C          C       0.98576   0.45708   0.23978 
H          H       0.38888   0.47938   0.11096 
H          H       0.61112   0.52062   0.11096 
H          H       0.30078   0.59213   0.41563 
H          H       0.69922   0.40787   0.41563 
H          H       0.31495   0.53580   0.00903 
H          H       0.68505   0.46420   0.00903 
H          H       0.23705   0.66986   0.28581 
H          H       0.76295   0.33014   0.28581 
H          H       0.24003   0.48635   0.48106 
H          H       0.75997   0.51365   0.48106 
C          C       0.15110   0.62934   0.23272 
C          C       0.84890   0.37066   0.23272 
H          H       0.20899   0.41594   0.11269 
H          H       0.79101   0.58406   0.11269 
H          H       0.16312   0.52083   0.45597 
H          H       0.83688   0.47917   0.45597 
H          H       0.25382   0.39588   0.27634 
H          H       0.74618   0.60412   0.27634 
H          H       0.23775   0.56290   0.49715 
H          H       0.76225   0.43710   0.49715 
H          H       0.32862   0.44630   0.31722 
H          H       0.67138   0.55370   0.31722 
C          C       0.10797   0.60151   0.20760 
C          C       0.89203   0.39849   0.20760 
C          C       0.54322   0.02715   0.12936 
C          C       0.45678   0.97285   0.12936 
C          C       0.16664   0.67496   0.20597 
C          C       0.83336   0.32504   0.20597 
H          H       0.57687   0.04745   0.13109 
H          H       0.42313   0.95255   0.13109 
C          C       0.20262   0.70074   0.10872 
C          C       0.79738   0.29926   0.10872 
C          C       0.35281   0.71081   0.32849 
C          C       0.64719   0.28919   0.32849 
C          C       0.21666   0.74339   0.08940 
C          C       0.78334   0.25661   0.08940 
N          N       0.31047   0.68662   0.34708 
N          N       0.68953   0.31338   0.34708 
C          C       0.19409   0.76067   0.16143 
C          C       0.80591   0.23933   0.16143 
C          C       0.37182   0.75647   0.28814 
C          C       0.62818   0.24353   0.28814 
C          C       0.15750   0.73530   0.25317 
C          C       0.84250   0.26470   0.25317 
C          C       0.41194   0.77941   0.21385 
C          C       0.58806   0.22059   0.21385 
C          C       0.14396   0.69284   0.27621 
C          C       0.85604   0.30716   0.27621 
C          C       0.43114   0.82283   0.18356 
C          C       0.56886   0.17717   0.18356 
H          H       0.08901   0.61326   0.15178 
H          H       0.91099   0.38674   0.15178 
C          C       0.40823   0.84312   0.22282 
C          C       0.59177   0.15688   0.22282 
H          H       0.21994   0.68818   0.04675 
H          H       0.78006   0.31182   0.04675 
C          C       0.36774   0.82032   0.29039 
C          C       0.63226   0.17968   0.29039 
H          H       0.24468   0.76289   0.01587 
H          H       0.75532   0.23711   0.01587 
C          C       0.34975   0.77749   0.32349 
C          C       0.65025   0.22251   0.32349 
H          H       0.20476   0.79362   0.14497 
H          H       0.79524   0.20638   0.14497 
N          N       0.42589   0.88516   0.20086 
N          N       0.57411   0.11484   0.20086 
H          H       0.13994   0.74866   0.30889 
H          H       0.86006   0.25134   0.30889 
C          C       0.46539   0.90954   0.13923 
C          C       0.53461   0.09046   0.13923 
H          H       0.11610   0.67406   0.35192 
H          H       0.88390   0.32594   0.35192 
C          C       0.48344   0.95590   0.12946 
C          C       0.51656   0.04410   0.12946 
C          C       0.97128   0.51407   0.23912 
C          C       0.02872   0.48593   0.23912 
C          C       0.52700   0.98381   0.13047 
C          C       0.47300   0.01619   0.13047 
H          H       0.94968   0.52587   0.24065 
H          H       0.05032   0.47413   0.24065 
H          H       0.42811   0.76318   0.18077 
H          H       0.57189   0.23682   0.18077 
H          H       0.42379   0.44996   0.21261 
H          H       0.57621   0.55004   0.21261 
C          C       0.47285   0.84743   0.12090 
C          C       0.52715   0.15257   0.12090 
H          H       0.54902   0.97266   0.13751 
H          H       0.45098   0.02734   0.13751 
H          H       0.35038   0.83601   0.32106 
H          H       0.64962   0.16399   0.32106 
H          H       0.02395   0.57580   0.24593 
H          H       0.97605   0.42420   0.24593 
C          C       0.35869   0.64841   0.86993 
C          C       0.64131   0.35159   0.86993 
H          H       0.31875   0.76098   0.87952 
H          H       0.68125   0.23902   0.87952 
C          C       0.37745   0.69163   0.84288 
C          C       0.62255   0.30837   0.84288 
C          C       0.48870   0.89044   0.59361 
C          C       0.51130   0.10956   0.59361 
C          C       0.38406   0.62710   0.85840 
C          C       0.61594   0.37290   0.85840 
C          C       0.50282   0.83154   0.60014 
C          C       0.49718   0.16846   0.60014 
C          C       0.36674   0.58695   0.78496 
C          C       0.63326   0.41305   0.78496 
C          C       0.49296   0.79548   0.50425 
C          C       0.50704   0.20452   0.50425 
C          C       0.39051   0.56700   0.76194 
C          C       0.60949   0.43300   0.76194 
C          C       0.52141   0.78111   0.98998 
C          C       0.47859   0.21889   0.98998 
C          C       0.43318   0.58905   0.81048 
C          C       0.56682   0.41095   0.81048 
C          C       0.56087   0.80352   0.56546 
C          C       0.43913   0.19648   0.56546 
C          C       0.45041   0.62861   0.88609 
C          C       0.54959   0.37139   0.88609 
C          C       0.57183   0.84024   0.65577 
C          C       0.42817   0.15976   0.65577 
C          C       0.42605   0.64731   0.91166 
C          C       0.57395   0.35269   0.91166 
C          C       0.54300   0.85406   0.67404 
C          C       0.45700   0.14594   0.67404 
N          N       0.45762   0.57158   0.78832 
N          N       0.54238   0.42842   0.78832 
H          H       0.51960   0.90881   0.53889 
H          H       0.48040   0.09119   0.53889 
C          C       0.44310   0.53296   0.71911 
C          C       0.55690   0.46704   0.71911 
H          H       0.46339   0.77833   0.94002 
H          H       0.53661   0.22167   0.94002 
C          C       0.47189   0.51571   0.70614 
C          C       0.52811   0.48429   0.70614 
H          H       0.51312   0.75299   0.91751 
H          H       0.48688   0.24701   0.91751 
C          C       0.45688   0.47234   0.70601 
C          C       0.54312   0.52766   0.70601 
H          H       0.58306   0.79262   0.55291 
H          H       0.41694   0.20738   0.55291 
C          C       0.48462   0.45692   0.70514 
C          C       0.51538   0.54308   0.70514 
H          H       0.60245   0.85767   0.71420 
H          H       0.39755   0.14233   0.71420 
H          H       0.41092   0.70954   0.82899 
H          H       0.58908   0.29046   0.82899 
H          H       0.55185   0.88203   0.74862 
H          H       0.44815   0.11797   0.74862 
H          H       0.33471   0.57194   0.74509 
H          H       0.66529   0.42806   0.74509 
C          C       0.29075   0.64462   0.87950 
C          C       0.70925   0.35538   0.87950 
C          C       0.37370   0.52568   0.69519 
C          C       0.62630   0.47432   0.69519 
C          C       0.31519   0.62524   0.89302 
C          C       0.68481   0.37476   0.89302 
H          H       0.48282   0.64487   0.92669 
H          H       0.51718   0.35513   0.92669 
C          C       0.24382   0.61954   0.88121 
C          C       0.75618   0.38046   0.88121 
H          H       0.44020   0.67758   0.97379 
H          H       0.55980   0.32242   0.97379 
C          C       0.22031   0.63721   0.81782 
C          C       0.77969   0.36279   0.81782 
C          C       0.40098   0.50991   0.66899 
C          C       0.59902   0.49009   0.66899 
C          C       0.17636   0.61303   0.79636 
C          C       0.82364   0.38697   0.79636 
H          H       0.47187   0.42336   0.70680 
H          H       0.52813   0.57664   0.70680 
C          C       0.15627   0.57023   0.84263 
C          C       0.84373   0.42977   0.84263 
C          C       0.32794   0.49588   0.66990 
C          C       0.67206   0.50412   0.66990 
C          C       0.17899   0.55324   0.91529 
C          C       0.82101   0.44676   0.91529 
C          C       0.30222   0.50611   0.57249 
C          C       0.69778   0.49389   0.57249 
C          C       0.22209   0.57758   0.93660 
C          C       0.77791   0.42242   0.93660 
C          C       0.25946   0.47777   0.55475 
C          C       0.74054   0.52223   0.55475 
N          N       0.11442   0.54528   0.82123 
N          N       0.88558   0.45472   0.82123 
C          C       0.24201   0.43805   0.62811 
C          C       0.75799   0.56195   0.62811 
C          C       0.08961   0.55920   0.75469 
C          C       0.91039   0.44080   0.75469 
C          C       0.26731   0.42672   0.71973 
C          C       0.73269   0.57328   0.71973 
C          C       0.04368   0.52928   0.74059 
C          C       0.95632   0.47072   0.74059 
C          C       0.30988   0.45544   0.74156 
C          C       0.69012   0.54456   0.74156 
C          C       0.01424   0.54292   0.73978 
C          C       0.98576   0.45708   0.73978 
H          H       0.38888   0.47938   0.61096 
H          H       0.61112   0.52062   0.61096 
H          H       0.30078   0.59213   0.91563 
H          H       0.69922   0.40787   0.91563 
H          H       0.31495   0.53580   0.50903 
H          H       0.68505   0.46420   0.50903 
H          H       0.23705   0.66986   0.78581 
H          H       0.76295   0.33014   0.78581 
H          H       0.24003   0.48635   0.98106 
H          H       0.75997   0.51365   0.98106 
C          C       0.15110   0.62934   0.73272 
C          C       0.84890   0.37066   0.73272 
H          H       0.20899   0.41594   0.61269 
H          H       0.79101   0.58406   0.61269 
H          H       0.16312   0.52083   0.95597 
H          H       0.83688   0.47917   0.95597 
H          H       0.25382   0.39588   0.77634 
H          H       0.74618   0.60412   0.77634 
H          H       0.23775   0.56290   0.99715 
H          H       0.76225   0.43710   0.99715 
H          H       0.32862   0.44630   0.81722 
H          H       0.67138   0.55370   0.81722 
C          C       0.10797   0.60151   0.70760 
C          C       0.89203   0.39849   0.70760 
C          C       0.54322   0.02715   0.62936 
C          C       0.45678   0.97285   0.62936 
C          C       0.16664   0.67496   0.70597 
C          C       0.83336   0.32504   0.70597 
H          H       0.57687   0.04745   0.63109 
H          H       0.42313   0.95255   0.63109 
C          C       0.20262   0.70074   0.60872 
C          C       0.79738   0.29926   0.60872 
C          C       0.35281   0.71081   0.82849 
C          C       0.64719   0.28919   0.82849 
C          C       0.21666   0.74339   0.58940 
C          C       0.78334   0.25661   0.58940 
N          N       0.31047   0.68662   0.84708 
N          N       0.68953   0.31338   0.84708 
C          C       0.19409   0.76067   0.66143 
C          C       0.80591   0.23933   0.66143 
C          C       0.37182   0.75647   0.78814 
C          C       0.62818   0.24353   0.78814 
C          C       0.15750   0.73530   0.75317 
C          C       0.84250   0.26470   0.75317 
C          C       0.41194   0.77941   0.71386 
C          C       0.58806   0.22059   0.71386 
C          C       0.14396   0.69284   0.77622 
C          C       0.85604   0.30716   0.77622 
C          C       0.43114   0.82283   0.68356 
C          C       0.56886   0.17717   0.68356 
H          H       0.08901   0.61326   0.65178 
H          H       0.91099   0.38674   0.65178 
C          C       0.40823   0.84312   0.72282 
C          C       0.59177   0.15688   0.72282 
H          H       0.21994   0.68818   0.54675 
H          H       0.78006   0.31182   0.54675 
C          C       0.36774   0.82032   0.79039 
C          C       0.63226   0.17968   0.79039 
H          H       0.24468   0.76289   0.51587 
H          H       0.75532   0.23711   0.51587 
C          C       0.34975   0.77749   0.82349 
C          C       0.65025   0.22251   0.82349 
H          H       0.20476   0.79362   0.64497 
H          H       0.79524   0.20638   0.64497 
N          N       0.42589   0.88516   0.70086 
N          N       0.57411   0.11484   0.70086 
H          H       0.13994   0.74866   0.80889 
H          H       0.86006   0.25134   0.80889 
C          C       0.46539   0.90954   0.63923 
C          C       0.53461   0.09046   0.63923 
H          H       0.11610   0.67406   0.85192 
H          H       0.88390   0.32594   0.85192 
C          C       0.48344   0.95590   0.62946 
C          C       0.51656   0.04410   0.62946 
C          C       0.97128   0.51407   0.73912 
C          C       0.02872   0.48593   0.73912 
C          C       0.52700   0.98381   0.63047 
C          C       0.47300   0.01619   0.63047 
H          H       0.94968   0.52587   0.74065 
H          H       0.05032   0.47413   0.74065 
H          H       0.42811   0.76318   0.68077 
H          H       0.57189   0.23682   0.68077 
H          H       0.42379   0.44996   0.71262 
H          H       0.57621   0.55004   0.71262 
C          C       0.47285   0.84743   0.62091 
C          C       0.52715   0.15257   0.62091 
H          H       0.54902   0.97266   0.63752 
H          H       0.45098   0.02734   0.63752 
H          H       0.35038   0.83601   0.82106 
H          H       0.64962   0.16399   0.82106 
H          H       0.02395   0.57580   0.74594 
H          H       0.97605   0.42420   0.74594 
