data_crystal
 
_cell_length_a    36.87500
_cell_length_b    36.87500
_cell_length_c    8.20880
_cell_angle_alpha 90.00000
_cell_angle_beta  90.00000
_cell_angle_gamma 120.00000
 
_space_group_name_Hall 'P 1'
_space_group_name_H-M_alt  'P 1'
 
loop_
_symmetry_equiv_pos_as_xyz
 'x,y,z' 
 
loop_
_atom_site_label
_atom_site_type_symbol
_atom_site_fract_x
_atom_site_fract_y
_atom_site_fract_z
C          C       0.28919   0.64733   0.24999 
C          C       0.35267   0.64186   0.24999 
C          C       0.35814   0.71081   0.24999 
C          C       0.71081   0.35267   0.24999 
C          C       0.64733   0.35814   0.24999 
C          C       0.64186   0.28919   0.24999 
C          C       0.30881   0.62302   0.25105 
C          C       0.37698   0.68579   0.25105 
C          C       0.31421   0.69119   0.25105 
C          C       0.69119   0.37698   0.25105 
C          C       0.62302   0.31421   0.25105 
C          C       0.68579   0.30881   0.25105 
C          C       0.24273   0.62690   0.23818 
C          C       0.37310   0.61583   0.23818 
C          C       0.38417   0.75727   0.23818 
C          C       0.75727   0.37310   0.23818 
C          C       0.62690   0.38417   0.23818 
C          C       0.61583   0.24273   0.23818 
C          C       0.35460   0.57866   0.14566 
C          C       0.42134   0.77594   0.14566 
C          C       0.22406   0.64540   0.14566 
C          C       0.64540   0.42134   0.14566 
C          C       0.57866   0.22406   0.14566 
C          C       0.77594   0.35460   0.14566 
C          C       0.37457   0.55519   0.12821 
C          C       0.44481   0.81938   0.12821 
C          C       0.18062   0.62543   0.12821 
C          C       0.62543   0.44481   0.12821 
C          C       0.55519   0.18062   0.12821 
C          C       0.81938   0.37457   0.12821 
C          C       0.41349   0.56860   0.20124 
C          C       0.43140   0.84489   0.20124 
C          C       0.15511   0.58651   0.20124 
C          C       0.58651   0.43140   0.20124 
C          C       0.56860   0.15511   0.20124 
C          C       0.84489   0.41349   0.20124 
C          C       0.43217   0.60534   0.29368 
C          C       0.39466   0.82683   0.29368 
C          C       0.17317   0.56783   0.29368 
C          C       0.56783   0.39466   0.29368 
C          C       0.60534   0.17317   0.29368 
C          C       0.82683   0.43217   0.29368 
C          C       0.41199   0.62860   0.31360 
C          C       0.37140   0.78339   0.31360 
C          C       0.21661   0.58801   0.31360 
C          C       0.58801   0.37140   0.31360 
C          C       0.62860   0.21661   0.31360 
C          C       0.78339   0.41199   0.31360 
N          N       0.43532   0.54633   0.17288 
N          N       0.45367   0.88899   0.17288 
N          N       0.11101   0.56468   0.17288 
N          N       0.56468   0.45367   0.17288 
N          N       0.54633   0.11101   0.17288 
N          N       0.88899   0.43532   0.17288 
C          C       0.42445   0.50746   0.25942 
C          C       0.49254   0.91699   0.25942 
C          C       0.08301   0.57555   0.25942 
C          C       0.57555   0.49254   0.25942 
C          C       0.50746   0.08301   0.25942 
C          C       0.91699   0.42445   0.25942 
C          C       0.46310   0.50280   0.28413 
C          C       0.49720   0.96030   0.28413 
C          C       0.03970   0.53690   0.28413 
C          C       0.53690   0.49720   0.28413 
C          C       0.50280   0.03970   0.28413 
C          C       0.96030   0.46310   0.28413 
C          C       0.46022   0.46336   0.30462 
C          C       0.53664   0.99686   0.30462 
C          C       0.00314   0.53978   0.30462 
C          C       0.53978   0.53664   0.30462 
C          C       0.46336   0.00314   0.30462 
C          C       0.99686   0.46022   0.30462 
C          C       0.49723   0.46103   0.29848 
C          C       0.53897   0.03620   0.29848 
C          C       0.96380   0.50277   0.29848 
C          C       0.50277   0.53897   0.29848 
C          C       0.46103   0.96380   0.29848 
C          C       0.03620   0.49723   0.29848 
O          O       0.42038   0.42781   0.33030 
O          O       0.57219   0.99257   0.33030 
O          O       0.00743   0.57962   0.33030 
O          O       0.57962   0.57219   0.33030 
O          O       0.42781   0.00743   0.33030 
O          O       0.99257   0.42038   0.33030 
C          C       0.58195   0.60997   0.38606 
C          C       0.39003   0.97198   0.38606 
C          C       0.02802   0.41805   0.38606 
C          C       0.41805   0.39003   0.38606 
C          C       0.60997   0.02802   0.38606 
C          C       0.97198   0.58195   0.38606 
H          H       0.28985   0.58925   0.24883 
H          H       0.41075   0.70060   0.24883 
H          H       0.29940   0.71015   0.24883 
H          H       0.71015   0.41075   0.24883 
H          H       0.58925   0.29940   0.24883 
H          H       0.70060   0.28985   0.24883 
H          H       0.32545   0.56842   0.08134 
H          H       0.43158   0.75703   0.08134 
H          H       0.24297   0.67455   0.08134 
H          H       0.67455   0.43158   0.08134 
H          H       0.56842   0.24297   0.08134 
H          H       0.75703   0.32545   0.08134 
H          H       0.36036   0.52732   0.05319 
H          H       0.47268   0.83304   0.05319 
H          H       0.16696   0.63964   0.05319 
H          H       0.63964   0.47268   0.05319 
H          H       0.52732   0.16696   0.05319 
H          H       0.83304   0.36036   0.05319 
H          H       0.46233   0.61587   0.35040 
H          H       0.38413   0.84646   0.35040 
H          H       0.15354   0.53767   0.35040 
H          H       0.53767   0.38413   0.35040 
H          H       0.61587   0.15354   0.35040 
H          H       0.84646   0.46233   0.35040 
H          H       0.42679   0.65643   0.38875 
H          H       0.34357   0.77036   0.38875 
H          H       0.22964   0.57321   0.38875 
H          H       0.57321   0.34357   0.38875 
H          H       0.65643   0.22964   0.38875 
H          H       0.77036   0.42679   0.38875 
H          H       0.49543   0.43092   0.30363 
H          H       0.56908   0.06451   0.30363 
H          H       0.93549   0.50457   0.30363 
H          H       0.50457   0.56908   0.30363 
H          H       0.43092   0.93549   0.30363 
H          H       0.06451   0.49543   0.30363 
H          H       0.57132   0.62369   0.28990 
H          H       0.37631   0.94763   0.28990 
H          H       0.05237   0.42868   0.28990 
H          H       0.42868   0.37631   0.28990 
H          H       0.62369   0.05237   0.28990 
H          H       0.94763   0.57132   0.28990 
H          H       0.61507   0.63300   0.41446 
H          H       0.36700   0.98207   0.41446 
H          H       0.01793   0.38493   0.41446 
H          H       0.38493   0.36700   0.41446 
H          H       0.63300   0.01793   0.41446 
H          H       0.98207   0.61507   0.41446 
H          H       0.56322   0.60415   0.49893 
H          H       0.39585   0.95907   0.49893 
H          H       0.04093   0.43678   0.49893 
H          H       0.43678   0.39585   0.49893 
H          H       0.60415   0.04093   0.49893 
H          H       0.95907   0.56322   0.49893 
H          H       0.45648   0.55611   0.07584 
H          H       0.44389   0.90037   0.07584 
H          H       0.09963   0.54352   0.07584 
H          H       0.54352   0.44389   0.07584 
H          H       0.55611   0.09963   0.07584 
H          H       0.90037   0.45648   0.07584 
C          C       0.39092   0.47227   0.16827 
C          C       0.52773   0.91865   0.16827 
C          C       0.08135   0.60908   0.16827 
C          C       0.60908   0.52773   0.16827 
C          C       0.47227   0.08135   0.16827 
C          C       0.91865   0.39092   0.16827 
N          N       0.36440   0.44457   0.09730 
N          N       0.55543   0.91983   0.09730 
N          N       0.08017   0.63560   0.09730 
N          N       0.63560   0.55543   0.09730 
N          N       0.44457   0.08017   0.09730 
N          N       0.91983   0.36440   0.09730 
H          H       0.41161   0.50817   0.37988 
H          H       0.49183   0.90344   0.37988 
H          H       0.09656   0.58839   0.37988 
H          H       0.58839   0.49183   0.37988 
H          H       0.50817   0.09656   0.37988 
H          H       0.90344   0.41161   0.37988 
C          C       0.28919   0.64733   0.74999 
C          C       0.35267   0.64186   0.74999 
C          C       0.35814   0.71081   0.74999 
C          C       0.71081   0.35267   0.74999 
C          C       0.64733   0.35814   0.74999 
C          C       0.64186   0.28919   0.74999 
C          C       0.30881   0.62302   0.75106 
C          C       0.37698   0.68579   0.75106 
C          C       0.31421   0.69119   0.75106 
C          C       0.69119   0.37698   0.75106 
C          C       0.62302   0.31421   0.75106 
C          C       0.68579   0.30881   0.75106 
C          C       0.24273   0.62690   0.73818 
C          C       0.37310   0.61583   0.73818 
C          C       0.38417   0.75727   0.73818 
C          C       0.75727   0.37310   0.73818 
C          C       0.62690   0.38417   0.73818 
C          C       0.61583   0.24273   0.73818 
C          C       0.35460   0.57866   0.64567 
C          C       0.42134   0.77594   0.64567 
C          C       0.22406   0.64540   0.64567 
C          C       0.64540   0.42134   0.64567 
C          C       0.57866   0.22406   0.64567 
C          C       0.77594   0.35460   0.64567 
C          C       0.37457   0.55519   0.62821 
C          C       0.44481   0.81938   0.62821 
C          C       0.18062   0.62543   0.62821 
C          C       0.62543   0.44481   0.62821 
C          C       0.55519   0.18062   0.62821 
C          C       0.81938   0.37457   0.62821 
C          C       0.41349   0.56860   0.70124 
C          C       0.43140   0.84489   0.70124 
C          C       0.15511   0.58651   0.70124 
C          C       0.58651   0.43140   0.70124 
C          C       0.56860   0.15511   0.70124 
C          C       0.84489   0.41349   0.70124 
C          C       0.43217   0.60534   0.79368 
C          C       0.39466   0.82683   0.79368 
C          C       0.17317   0.56783   0.79368 
C          C       0.56783   0.39466   0.79368 
C          C       0.60534   0.17317   0.79368 
C          C       0.82683   0.43217   0.79368 
C          C       0.41199   0.62860   0.81360 
C          C       0.37140   0.78339   0.81360 
C          C       0.21661   0.58801   0.81360 
C          C       0.58801   0.37140   0.81360 
C          C       0.62860   0.21661   0.81360 
C          C       0.78339   0.41199   0.81360 
N          N       0.43532   0.54633   0.67287 
N          N       0.45367   0.88899   0.67287 
N          N       0.11101   0.56468   0.67287 
N          N       0.56468   0.45367   0.67287 
N          N       0.54633   0.11101   0.67287 
N          N       0.88899   0.43532   0.67287 
C          C       0.42445   0.50746   0.75942 
C          C       0.49254   0.91699   0.75942 
C          C       0.08301   0.57555   0.75942 
C          C       0.57555   0.49254   0.75942 
C          C       0.50746   0.08301   0.75942 
C          C       0.91699   0.42445   0.75942 
C          C       0.46310   0.50280   0.78413 
C          C       0.49720   0.96030   0.78413 
C          C       0.03970   0.53690   0.78413 
C          C       0.53690   0.49720   0.78413 
C          C       0.50280   0.03970   0.78413 
C          C       0.96030   0.46310   0.78413 
C          C       0.46022   0.46336   0.80462 
C          C       0.53664   0.99686   0.80462 
C          C       0.00314   0.53978   0.80462 
C          C       0.53978   0.53664   0.80462 
C          C       0.46336   0.00314   0.80462 
C          C       0.99686   0.46022   0.80462 
C          C       0.49723   0.46103   0.79848 
C          C       0.53897   0.03620   0.79848 
C          C       0.96380   0.50277   0.79848 
C          C       0.50277   0.53897   0.79848 
C          C       0.46103   0.96380   0.79848 
C          C       0.03620   0.49723   0.79848 
O          O       0.42038   0.42781   0.83030 
O          O       0.57219   0.99257   0.83030 
O          O       0.00743   0.57962   0.83030 
O          O       0.57962   0.57219   0.83030 
O          O       0.42781   0.00743   0.83030 
O          O       0.99257   0.42038   0.83030 
C          C       0.58195   0.60997   0.88606 
C          C       0.39003   0.97198   0.88606 
C          C       0.02802   0.41805   0.88606 
C          C       0.41805   0.39003   0.88606 
C          C       0.60997   0.02802   0.88606 
C          C       0.97198   0.58195   0.88606 
H          H       0.28985   0.58925   0.74883 
H          H       0.41075   0.70060   0.74883 
H          H       0.29940   0.71015   0.74883 
H          H       0.71015   0.41075   0.74883 
H          H       0.58925   0.29940   0.74883 
H          H       0.70060   0.28985   0.74883 
H          H       0.32545   0.56842   0.58134 
H          H       0.43158   0.75703   0.58134 
H          H       0.24297   0.67455   0.58134 
H          H       0.67455   0.43158   0.58134 
H          H       0.56842   0.24297   0.58134 
H          H       0.75703   0.32545   0.58134 
H          H       0.36036   0.52732   0.55319 
H          H       0.47268   0.83304   0.55319 
H          H       0.16696   0.63964   0.55319 
H          H       0.63964   0.47268   0.55319 
H          H       0.52732   0.16696   0.55319 
H          H       0.83304   0.36036   0.55319 
H          H       0.46233   0.61587   0.85040 
H          H       0.38413   0.84646   0.85040 
H          H       0.15354   0.53767   0.85040 
H          H       0.53767   0.38413   0.85040 
H          H       0.61587   0.15354   0.85040 
H          H       0.84646   0.46233   0.85040 
H          H       0.42679   0.65643   0.88875 
H          H       0.34357   0.77036   0.88875 
H          H       0.22964   0.57321   0.88875 
H          H       0.57321   0.34357   0.88875 
H          H       0.65643   0.22964   0.88875 
H          H       0.77036   0.42679   0.88875 
H          H       0.49543   0.43092   0.80363 
H          H       0.56908   0.06451   0.80363 
H          H       0.93549   0.50457   0.80363 
H          H       0.50457   0.56908   0.80363 
H          H       0.43092   0.93549   0.80363 
H          H       0.06451   0.49543   0.80363 
H          H       0.57132   0.62369   0.78990 
H          H       0.37631   0.94763   0.78990 
H          H       0.05237   0.42868   0.78990 
H          H       0.42868   0.37631   0.78990 
H          H       0.62369   0.05237   0.78990 
H          H       0.94763   0.57132   0.78990 
H          H       0.61507   0.63300   0.91446 
H          H       0.36700   0.98207   0.91446 
H          H       0.01793   0.38493   0.91446 
H          H       0.38493   0.36700   0.91446 
H          H       0.63300   0.01793   0.91446 
H          H       0.98207   0.61507   0.91446 
H          H       0.56322   0.60415   0.99893 
H          H       0.39585   0.95907   0.99893 
H          H       0.04093   0.43678   0.99893 
H          H       0.43678   0.39585   0.99893 
H          H       0.60415   0.04093   0.99893 
H          H       0.95907   0.56322   0.99893 
H          H       0.45648   0.55611   0.57584 
H          H       0.44389   0.90037   0.57584 
H          H       0.09963   0.54352   0.57584 
H          H       0.54352   0.44389   0.57584 
H          H       0.55611   0.09963   0.57584 
H          H       0.90037   0.45648   0.57584 
C          C       0.39092   0.47227   0.66827 
C          C       0.52773   0.91865   0.66827 
C          C       0.08135   0.60908   0.66827 
C          C       0.60908   0.52773   0.66827 
C          C       0.47227   0.08135   0.66827 
C          C       0.91865   0.39092   0.66827 
N          N       0.36440   0.44457   0.59729 
N          N       0.55543   0.91983   0.59729 
N          N       0.08017   0.63560   0.59729 
N          N       0.63560   0.55543   0.59729 
N          N       0.44457   0.08017   0.59729 
N          N       0.91983   0.36440   0.59729 
H          H       0.41161   0.50817   0.87989 
H          H       0.49183   0.90344   0.87989 
H          H       0.09656   0.58839   0.87989 
H          H       0.58839   0.49183   0.87989 
H          H       0.50817   0.09656   0.87989 
H          H       0.90344   0.41161   0.87989 
