data_crystal

_cell_length_a    36.87500
_cell_length_b    36.87500
_cell_length_c    8.20880
_cell_angle_alpha 90.00000
_cell_angle_beta  90.00000
_cell_angle_gamma 120.00000

_space_group_name_Hall 'P 1'
_space_group_name_H-M_alt  'P 1'

loop_
_symmetry_equiv_pos_as_xyz
'x,y,z' 

loop_
_atom_site_label
_atom_site_type_symbol
_atom_site_fract_x
_atom_site_fract_y
_atom_site_fract_z
C          C       0.29053   0.64484   0.29810 
C          C       0.70947   0.35516   0.29810 
C          C       0.53440   0.99392   0.21081 
C          C       0.46560   0.00608   0.21081 
C          C       0.30985   0.62054   0.27875 
C          C       0.69015   0.37946   0.27875 
H          H       0.40846   0.69921   0.19416 
H          H       0.59154   0.30079   0.19416 
C          C       0.24459   0.62507   0.32180 
C          C       0.75541   0.37493   0.32180 
H          H       0.43484   0.76331   0.35351 
H          H       0.56516   0.23669   0.35351 
C          C       0.35082   0.57659   0.11771 
C          C       0.64918   0.42341   0.11771 
H          H       0.47409   0.83830   0.30270 
H          H       0.52591   0.16170   0.30270 
C          C       0.37020   0.55353   0.07744 
C          C       0.62980   0.44647   0.07744 
H          H       0.36833   0.83007   0.04340 
H          H       0.63167   0.16993   0.04340 
C          C       0.41184   0.56806   0.12197 
C          C       0.58816   0.43194   0.12197 
H          H       0.32880   0.75446   0.09524 
H          H       0.67120   0.24554   0.09524 
C          C       0.43395   0.60560   0.20826 
C          C       0.56605   0.39440   0.20826 
H          H       0.43579   0.89444   0.03383 
H          H       0.56421   0.10556   0.03383 
C          C       0.41448   0.62846   0.25091 
C          C       0.58552   0.37154   0.25091 
C          C       0.52117   0.91181   0.12363 
C          C       0.47883   0.08819   0.12363 
N          N       0.43229   0.54559   0.07333 
N          N       0.56771   0.45441   0.07333 
N          N       0.54799   0.90969   0.05934 
N          N       0.45201   0.09031   0.05934 
C          C       0.42384   0.50679   0.15473 
C          C       0.57616   0.49321   0.15473 
H          H       0.48676   0.90592   0.33463 
H          H       0.51324   0.09408   0.33463 
C          C       0.46319   0.50314   0.16495 
C          C       0.53681   0.49686   0.16495 
C          C       0.35577   0.70719   0.24969 
C          C       0.64423   0.29281   0.24969 
C          C       0.46072   0.46382   0.17370 
C          C       0.53928   0.53618   0.17370 
N          N       0.31396   0.68718   0.28122 
N          N       0.68604   0.31282   0.28122 
C          C       0.49697   0.46075   0.17400 
C          C       0.50303   0.53925   0.17400 
C          C       0.37896   0.75311   0.22689 
C          C       0.62104   0.24689   0.22689 
H          H       0.29157   0.58678   0.28702 
H          H       0.70843   0.41322   0.28702 
C          C       0.22316   0.64439   0.25703 
C          C       0.77684   0.35561   0.25703 
H          H       0.31910   0.56538   0.07630 
H          H       0.68090   0.43462   0.07630 
C          C       0.17951   0.62437   0.26369 
C          C       0.82049   0.37563   0.26369 
H          H       0.35315   0.52495   0.00767 
H          H       0.64685   0.47505   0.00767 
C          C       0.15655   0.58488   0.33644 
C          C       0.84345   0.41512   0.33644 
H          H       0.46620   0.61700   0.24296 
H          H       0.53380   0.38300   0.24296 
C          C       0.17767   0.56606   0.40616 
C          C       0.82233   0.43394   0.40616 
H          H       0.43204   0.65706   0.32021 
H          H       0.56796   0.34294   0.32021 
C          C       0.22138   0.58614   0.40070 
C          C       0.77862   0.41386   0.40070 
H          H       0.49364   0.42990   0.17932 
H          H       0.50636   0.57010   0.17932 
N          N       0.11186   0.56182   0.32450 
N          N       0.88814   0.43818   0.32450 
H          H       0.45327   0.55731   0.47575 
H          H       0.54673   0.44269   0.47575 
C          C       0.08484   0.57320   0.41591 
C          C       0.91516   0.42680   0.41591 
C          C       0.38944   0.47105   0.06908 
C          C       0.61056   0.52895   0.06908 
C          C       0.04088   0.53550   0.43633 
C          C       0.95912   0.46450   0.43633 
N          N       0.36234   0.44293   0.00215 
N          N       0.63766   0.55707   0.00215 
C          C       0.00531   0.54020   0.44698 
C          C       0.99469   0.45980   0.44698 
H          H       0.41291   0.50674   0.27980 
H          H       0.58709   0.49326   0.27980 
H          H       0.24002   0.67418   0.19456 
H          H       0.75998   0.32582   0.19456 
C          C       0.54048   0.03447   0.21130 
C          C       0.45952   0.96553   0.21130 
H          H       0.16365   0.63891   0.20564 
H          H       0.83635   0.36109   0.20564 
H          H       0.57220   0.06052   0.21851 
H          H       0.42780   0.93948   0.21851 
H          H       0.16015   0.53553   0.46265 
H          H       0.83985   0.46447   0.46265 
C          C       0.35269   0.63988   0.24122 
C          C       0.64731   0.36012   0.24122 
H          H       0.23682   0.57091   0.45679 
H          H       0.76318   0.42909   0.45679 
C          C       0.37575   0.68367   0.22879 
C          C       0.62425   0.31633   0.22879 
H          H       0.09892   0.53813   0.23675 
H          H       0.90108   0.46187   0.23675 
C          C       0.37275   0.61443   0.20479 
C          C       0.62725   0.38557   0.20479 
C          C       0.08416   0.60828   0.33283 
C          C       0.91584   0.39172   0.33283 
C          C       0.42005   0.77755   0.28537 
C          C       0.57995   0.22245   0.28537 
N          N       0.08360   0.63584   0.26776 
N          N       0.91640   0.36416   0.26776 
C          C       0.44240   0.82069   0.25732 
C          C       0.55760   0.17931   0.25732 
H          H       0.09846   0.58434   0.03786 
H          H       0.90154   0.41566   0.03786 
C          C       0.42414   0.84022   0.16896 
C          C       0.57586   0.15978   0.16896 
C          C       0.96507   0.50521   0.44794 
C          C       0.03493   0.49479   0.44794 
C          C       0.38292   0.81576   0.11239 
C          C       0.61708   0.18424   0.11239 
H          H       0.93854   0.51019   0.45280 
H          H       0.06146   0.48981   0.45280 
C          C       0.36036   0.77269   0.14238 
C          C       0.63964   0.22731   0.14238 
H          H       0.43070   0.43523   0.17828 
H          H       0.56930   0.56477   0.17828 
N          N       0.44705   0.88420   0.12997 
N          N       0.55295   0.11580   0.12997 
H          H       0.56169   0.99021   0.21685 
H          H       0.43831   0.00979   0.21685 
C          C       0.48701   0.91440   0.20578 
C          C       0.51299   0.08560   0.20578 
H          H       0.00839   0.57095   0.45067 
H          H       0.99161   0.42905   0.45067 
C          C       0.49380   0.95875   0.20391 
C          C       0.50620   0.04125   0.20391 
C          C       0.29053   0.64484   0.79810 
C          C       0.70947   0.35516   0.79810 
C          C       0.53440   0.99392   0.71081 
C          C       0.46560   0.00608   0.71081 
C          C       0.30985   0.62054   0.77875 
C          C       0.69015   0.37946   0.77875 
H          H       0.40846   0.69921   0.69416 
H          H       0.59154   0.30079   0.69416 
C          C       0.24459   0.62507   0.82180 
C          C       0.75541   0.37493   0.82180 
H          H       0.43484   0.76331   0.85351 
H          H       0.56516   0.23669   0.85351 
C          C       0.35082   0.57659   0.61772 
C          C       0.64918   0.42341   0.61772 
H          H       0.47409   0.83830   0.80270 
H          H       0.52591   0.16170   0.80270 
C          C       0.37020   0.55353   0.57744 
C          C       0.62980   0.44647   0.57744 
H          H       0.36833   0.83007   0.54340 
H          H       0.63167   0.16993   0.54340 
C          C       0.41184   0.56806   0.62197 
C          C       0.58816   0.43194   0.62197 
H          H       0.32880   0.75446   0.59524 
H          H       0.67120   0.24554   0.59524 
C          C       0.43395   0.60560   0.70826 
C          C       0.56605   0.39440   0.70826 
H          H       0.43579   0.89444   0.53383 
H          H       0.56421   0.10556   0.53383 
C          C       0.41448   0.62846   0.75091 
C          C       0.58552   0.37154   0.75091 
C          C       0.52117   0.91181   0.62363 
C          C       0.47883   0.08819   0.62363 
N          N       0.43229   0.54559   0.57333 
N          N       0.56771   0.45441   0.57333 
N          N       0.54799   0.90969   0.55934 
N          N       0.45201   0.09031   0.55934 
C          C       0.42384   0.50679   0.65473 
C          C       0.57616   0.49321   0.65473 
H          H       0.48676   0.90592   0.83462 
H          H       0.51324   0.09408   0.83462 
C          C       0.46319   0.50314   0.66495 
C          C       0.53681   0.49686   0.66495 
C          C       0.35577   0.70719   0.74970 
C          C       0.64423   0.29281   0.74970 
C          C       0.46072   0.46382   0.67370 
C          C       0.53928   0.53618   0.67370 
N          N       0.31396   0.68718   0.78122 
N          N       0.68604   0.31282   0.78122 
C          C       0.49697   0.46075   0.67400 
C          C       0.50303   0.53925   0.67400 
C          C       0.37896   0.75311   0.72689 
C          C       0.62104   0.24689   0.72689 
H          H       0.29157   0.58678   0.78702 
H          H       0.70843   0.41322   0.78702 
C          C       0.22316   0.64439   0.75703 
C          C       0.77684   0.35561   0.75703 
H          H       0.31910   0.56538   0.57630 
H          H       0.68090   0.43462   0.57630 
C          C       0.17951   0.62437   0.76369 
C          C       0.82049   0.37563   0.76369 
H          H       0.35315   0.52495   0.50767 
H          H       0.64685   0.47505   0.50767 
C          C       0.15655   0.58488   0.83644 
C          C       0.84345   0.41512   0.83644 
H          H       0.46620   0.61700   0.74296 
H          H       0.53380   0.38300   0.74296 
C          C       0.17767   0.56606   0.90616 
C          C       0.82233   0.43394   0.90616 
H          H       0.43204   0.65706   0.82020 
H          H       0.56796   0.34294   0.82020 
C          C       0.22138   0.58614   0.90070 
C          C       0.77862   0.41386   0.90070 
H          H       0.49364   0.42990   0.67932 
H          H       0.50636   0.57010   0.67932 
N          N       0.11186   0.56182   0.82450 
N          N       0.88814   0.43818   0.82450 
H          H       0.45327   0.55731   0.97575 
H          H       0.54673   0.44269   0.97575 
C          C       0.08484   0.57320   0.91591 
C          C       0.91516   0.42680   0.91591 
C          C       0.38944   0.47105   0.56908 
C          C       0.61056   0.52895   0.56908 
C          C       0.04088   0.53550   0.93633 
C          C       0.95912   0.46450   0.93633 
N          N       0.36234   0.44293   0.50215 
N          N       0.63766   0.55707   0.50215 
C          C       0.00531   0.54020   0.94698 
C          C       0.99469   0.45980   0.94698 
H          H       0.41291   0.50674   0.77981 
H          H       0.58709   0.49326   0.77981 
H          H       0.24002   0.67418   0.69456 
H          H       0.75998   0.32582   0.69456 
C          C       0.54048   0.03447   0.71130 
C          C       0.45952   0.96553   0.71130 
H          H       0.16365   0.63891   0.70564 
H          H       0.83635   0.36109   0.70564 
H          H       0.57220   0.06052   0.71851 
H          H       0.42780   0.93948   0.71851 
H          H       0.16015   0.53553   0.96265 
H          H       0.83985   0.46447   0.96265 
C          C       0.35269   0.63988   0.74122 
C          C       0.64731   0.36012   0.74122 
H          H       0.23682   0.57091   0.95679 
H          H       0.76318   0.42909   0.95679 
C          C       0.37575   0.68367   0.72879 
C          C       0.62425   0.31633   0.72879 
H          H       0.09892   0.53813   0.73675 
H          H       0.90108   0.46187   0.73675 
C          C       0.37275   0.61443   0.70479 
C          C       0.62725   0.38557   0.70479 
C          C       0.08416   0.60828   0.83283 
C          C       0.91584   0.39172   0.83283 
C          C       0.42005   0.77755   0.78537 
C          C       0.57995   0.22245   0.78537 
N          N       0.08360   0.63584   0.76776 
N          N       0.91640   0.36416   0.76776 
C          C       0.44240   0.82069   0.75732 
C          C       0.55760   0.17931   0.75732 
H          H       0.09846   0.58434   0.53786 
H          H       0.90154   0.41566   0.53786 
C          C       0.42414   0.84022   0.66897 
C          C       0.57586   0.15978   0.66897 
C          C       0.96507   0.50521   0.94793 
C          C       0.03493   0.49479   0.94793 
C          C       0.38292   0.81576   0.61239 
C          C       0.61708   0.18424   0.61239 
H          H       0.93854   0.51019   0.95281 
H          H       0.06146   0.48981   0.95281 
C          C       0.36036   0.77269   0.64238 
C          C       0.63964   0.22731   0.64238 
H          H       0.43070   0.43523   0.67828 
H          H       0.56930   0.56477   0.67828 
N          N       0.44705   0.88420   0.62997 
N          N       0.55295   0.11580   0.62997 
H          H       0.56169   0.99021   0.71686 
H          H       0.43831   0.00979   0.71686 
C          C       0.48701   0.91440   0.70578 
C          C       0.51299   0.08560   0.70578 
H          H       0.00839   0.57095   0.95067 
H          H       0.99161   0.42905   0.95067 
C          C       0.49380   0.95875   0.70391 
C          C       0.50620   0.04125   0.70391 
