data_crystal

_cell_length_a    36.89700
_cell_length_b    36.89700
_cell_length_c    7.80020
_cell_angle_alpha 90.00000
_cell_angle_beta  90.00000
_cell_angle_gamma 120.00000

_space_group_name_Hall 'P 1'
_space_group_name_H-M_alt  'P 1'

loop_
_symmetry_equiv_pos_as_xyz
'x,y,z' 

loop_
_atom_site_label
_atom_site_type_symbol
_atom_site_fract_x
_atom_site_fract_y
_atom_site_fract_z
C          C       0.35743   0.64649   0.37553 
C          C       0.35351   0.71094   0.37553 
C          C       0.28906   0.64257   0.37553 
C          C       0.64257   0.35351   0.37553 
C          C       0.64649   0.28906   0.37553 
C          C       0.71094   0.35743   0.37553 
C          C       0.37695   0.69037   0.37787 
C          C       0.30963   0.68658   0.37787 
C          C       0.31342   0.62305   0.37787 
C          C       0.62305   0.30963   0.37787 
C          C       0.69037   0.31342   0.37787 
C          C       0.68658   0.37695   0.37787 
C          C       0.38296   0.62541   0.35763 
C          C       0.37459   0.75755   0.35763 
C          C       0.24245   0.61704   0.35763 
C          C       0.61704   0.37459   0.35763 
C          C       0.62541   0.24245   0.35763 
C          C       0.75755   0.38296   0.35763 
C          C       0.36674   0.58691   0.27046 
C          C       0.41309   0.77983   0.27046 
C          C       0.22017   0.63326   0.27046 
C          C       0.63326   0.41309   0.27046 
C          C       0.58691   0.22017   0.27046 
C          C       0.77983   0.36674   0.27046 
C          C       0.39030   0.56675   0.24851 
C          C       0.43325   0.82355   0.24851 
C          C       0.17645   0.60970   0.24851 
C          C       0.60970   0.43325   0.24851 
C          C       0.56675   0.17645   0.24851 
C          C       0.82355   0.39030   0.24851 
C          C       0.43206   0.58739   0.30867 
C          C       0.41261   0.84467   0.30867 
C          C       0.15533   0.56794   0.30867 
C          C       0.56794   0.41261   0.30867 
C          C       0.58739   0.15533   0.30867 
C          C       0.84467   0.43206   0.30867 
C          C       0.44843   0.62550   0.39524 
C          C       0.37450   0.82293   0.39524 
C          C       0.17707   0.55157   0.39524 
C          C       0.55157   0.37450   0.39524 
C          C       0.62550   0.17707   0.39524 
C          C       0.82293   0.44843   0.39524 
C          C       0.42400   0.64403   0.42216 
C          C       0.35597   0.77997   0.42216 
C          C       0.22003   0.57600   0.42216 
C          C       0.57600   0.35597   0.42216 
C          C       0.64403   0.22003   0.42216 
C          C       0.77997   0.42400   0.42216 
N          N       0.45628   0.56966   0.28840 
N          N       0.43034   0.88662   0.28840 
N          N       0.11338   0.54372   0.28840 
N          N       0.54372   0.43034   0.28840 
N          N       0.56966   0.11338   0.28840 
N          N       0.88662   0.45628   0.28840 
C          C       0.44265   0.53243   0.20785 
C          C       0.46757   0.91022   0.20785 
C          C       0.08978   0.55735   0.20785 
C          C       0.55735   0.46757   0.20785 
C          C       0.53243   0.08978   0.20785 
C          C       0.91022   0.44265   0.20785 
C          C       0.47122   0.51482   0.19845 
C          C       0.48518   0.95640   0.19845 
C          C       0.04360   0.52878   0.19845 
C          C       0.52878   0.48518   0.19845 
C          C       0.51482   0.04360   0.19845 
C          C       0.95640   0.47122   0.19845 
C          C       0.45641   0.47140   0.20888 
C          C       0.52860   0.98501   0.20888 
C          C       0.01499   0.54359   0.20888 
C          C       0.54359   0.52860   0.20888 
C          C       0.47140   0.01499   0.20888 
C          C       0.98501   0.45641   0.20888 
C          C       0.48542   0.45720   0.19820 
C          C       0.54280   0.02822   0.19820 
C          C       0.97178   0.51458   0.19820 
C          C       0.51458   0.54280   0.19820 
C          C       0.45720   0.97178   0.19820 
C          C       0.02822   0.48542   0.19820 
H          H       0.43734   0.67271   0.49563 
H          H       0.32729   0.76463   0.49563 
H          H       0.23537   0.56266   0.49563 
H          H       0.56266   0.32729   0.49563 
H          H       0.67271   0.23537   0.49563 
H          H       0.76463   0.43734   0.49563 
C          C       0.40181   0.51137   0.14181 
C          C       0.48863   0.89044   0.14181 
C          C       0.10956   0.59819   0.14181 
C          C       0.59819   0.48863   0.14181 
C          C       0.51137   0.10956   0.14181 
C          C       0.89044   0.40181   0.14181 
H          H       0.47445   0.42402   0.19546 
H          H       0.57598   0.05043   0.19546 
H          H       0.94957   0.52555   0.19546 
H          H       0.52555   0.57598   0.19546 
H          H       0.42402   0.94957   0.19546 
H          H       0.05043   0.47445   0.19546 
H          H       0.41877   0.40412   0.41489 
H          H       0.59588   0.01465   0.41489 
H          H       0.98535   0.58123   0.41489 
H          H       0.58123   0.59588   0.41489 
H          H       0.40412   0.98535   0.41489 
H          H       0.01465   0.41877   0.41489 
H          H       0.40305   0.38327   0.19941 
H          H       0.61673   0.01978   0.19941 
H          H       0.98022   0.59695   0.19941 
H          H       0.59695   0.61673   0.19941 
H          H       0.38327   0.98022   0.19941 
H          H       0.01978   0.40305   0.19941 
H          H       0.36683   0.38779   0.33841 
H          H       0.61221   0.97904   0.33841 
H          H       0.02096   0.63317   0.33841 
H          H       0.63317   0.61221   0.33841 
H          H       0.38779   0.02096   0.33841 
H          H       0.97904   0.36683   0.33841 
C          C       0.32859   0.49649   0.14377 
C          C       0.50351   0.83210   0.14377 
C          C       0.16790   0.67141   0.14377 
C          C       0.67141   0.50351   0.14377 
C          C       0.49649   0.16790   0.14377 
C          C       0.83210   0.32859   0.14377 
C          C       0.30244   0.50656   0.04866 
C          C       0.49344   0.79588   0.04866 
C          C       0.20412   0.69756   0.04866 
C          C       0.69756   0.49344   0.04866 
C          C       0.50656   0.20412   0.04866 
C          C       0.79588   0.30244   0.04866 
C          C       0.25985   0.47768   0.02955 
C          C       0.52232   0.78217   0.02955 
C          C       0.21783   0.74015   0.02955 
C          C       0.74015   0.52232   0.02955 
C          C       0.47768   0.21783   0.02955 
C          C       0.78217   0.25985   0.02955 
C          C       0.24297   0.43772   0.10014 
C          C       0.56228   0.80525   0.10014 
C          C       0.19475   0.75703   0.10014 
C          C       0.75703   0.56228   0.10014 
C          C       0.43772   0.19475   0.10014 
C          C       0.80525   0.24297   0.10014 
C          C       0.26867   0.42666   0.19020 
C          C       0.57334   0.84201   0.19020 
C          C       0.15799   0.73133   0.19020 
C          C       0.73133   0.57334   0.19020 
C          C       0.42666   0.15799   0.19020 
C          C       0.84201   0.26867   0.19020 
C          C       0.31108   0.45582   0.21276 
C          C       0.54418   0.85526   0.21276 
C          C       0.14474   0.68892   0.21276 
C          C       0.68892   0.54418   0.21276 
C          C       0.45582   0.14474   0.21276 
C          C       0.85526   0.31108   0.21276 
H          H       0.39073   0.48253   0.07093 
H          H       0.51747   0.90820   0.07093 
H          H       0.09180   0.60927   0.07093 
H          H       0.60927   0.51747   0.07093 
H          H       0.48253   0.09180   0.07093 
H          H       0.90820   0.39073   0.07093 
O          O       0.41336   0.44394   0.23895 
O          O       0.55606   0.96942   0.23895 
O          O       0.03058   0.58664   0.23895 
O          O       0.58664   0.55606   0.23895 
O          O       0.44394   0.03058   0.23895 
O          O       0.96942   0.41336   0.23895 
C          C       0.40024   0.40278   0.30074 
C          C       0.59722   0.99746   0.30074 
C          C       0.00254   0.59976   0.30074 
C          C       0.59976   0.59722   0.30074 
C          C       0.40278   0.00254   0.30074 
C          C       0.99746   0.40024   0.30074 
H          H       0.41063   0.70856   0.37657 
H          H       0.29144   0.70207   0.37657 
H          H       0.29793   0.58937   0.37657 
H          H       0.58937   0.29144   0.37657 
H          H       0.70856   0.29793   0.37657 
H          H       0.70207   0.41063   0.37657 
H          H       0.33579   0.57323   0.21924 
H          H       0.42677   0.76256   0.21924 
H          H       0.23744   0.66421   0.21924 
H          H       0.66421   0.42677   0.21924 
H          H       0.57323   0.23744   0.21924 
H          H       0.76256   0.33579   0.21924 
C          C       0.37420   0.52660   0.17103 
C          C       0.47340   0.84760   0.17103 
C          C       0.15240   0.62580   0.17103 
C          C       0.62580   0.47340   0.17103 
C          C       0.52660   0.15240   0.17103 
C          C       0.84760   0.37420   0.17103 
H          H       0.48005   0.64051   0.44511 
H          H       0.35949   0.83954   0.44511 
H          H       0.16046   0.51995   0.44511 
H          H       0.51995   0.35949   0.44511 
H          H       0.64051   0.16046   0.44511 
H          H       0.83954   0.48005   0.44511 
H          H       0.31456   0.53645   0.48783 
H          H       0.46355   0.77811   0.48783 
H          H       0.22189   0.68544   0.48783 
H          H       0.68544   0.46355   0.48783 
H          H       0.53645   0.22189   0.48783 
H          H       0.77811   0.31456   0.48783 
H          H       0.24009   0.48609   0.45730 
H          H       0.51391   0.75400   0.45730 
H          H       0.24600   0.75991   0.45730 
H          H       0.75991   0.51391   0.45730 
H          H       0.48609   0.24600   0.45730 
H          H       0.75400   0.24009   0.45730 
H          H       0.21007   0.41525   0.08390 
H          H       0.58475   0.79482   0.08390 
H          H       0.20518   0.78993   0.08390 
H          H       0.78993   0.58475   0.08390 
H          H       0.41525   0.20518   0.08390 
H          H       0.79482   0.21007   0.08390 
H          H       0.25563   0.39566   0.24483 
H          H       0.60434   0.85997   0.24483 
H          H       0.14003   0.74437   0.24483 
H          H       0.74437   0.60434   0.24483 
H          H       0.39566   0.14003   0.24483 
H          H       0.85997   0.25563   0.24483 
H          H       0.33016   0.44680   0.28673 
H          H       0.55320   0.88336   0.28673 
H          H       0.11664   0.66984   0.28673 
H          H       0.66984   0.55320   0.28673 
H          H       0.44680   0.11664   0.28673 
H          H       0.88336   0.33016   0.28673 
C          C       0.35743   0.64649   0.87553 
C          C       0.35351   0.71094   0.87553 
C          C       0.28906   0.64257   0.87553 
C          C       0.64257   0.35351   0.87553 
C          C       0.64649   0.28906   0.87553 
C          C       0.71094   0.35743   0.87553 
C          C       0.37695   0.69037   0.87787 
C          C       0.30963   0.68658   0.87787 
C          C       0.31342   0.62305   0.87787 
C          C       0.62305   0.30963   0.87787 
C          C       0.69037   0.31342   0.87787 
C          C       0.68658   0.37695   0.87787 
C          C       0.38296   0.62541   0.85764 
C          C       0.37459   0.75755   0.85764 
C          C       0.24245   0.61704   0.85764 
C          C       0.61704   0.37459   0.85764 
C          C       0.62541   0.24245   0.85764 
C          C       0.75755   0.38296   0.85764 
C          C       0.36674   0.58691   0.77046 
C          C       0.41309   0.77983   0.77046 
C          C       0.22017   0.63326   0.77046 
C          C       0.63326   0.41309   0.77046 
C          C       0.58691   0.22017   0.77046 
C          C       0.77983   0.36674   0.77046 
C          C       0.39030   0.56675   0.74851 
C          C       0.43325   0.82355   0.74851 
C          C       0.17645   0.60970   0.74851 
C          C       0.60970   0.43325   0.74851 
C          C       0.56675   0.17645   0.74851 
C          C       0.82355   0.39030   0.74851 
C          C       0.43206   0.58739   0.80868 
C          C       0.41261   0.84467   0.80868 
C          C       0.15533   0.56794   0.80868 
C          C       0.56794   0.41261   0.80868 
C          C       0.58739   0.15533   0.80868 
C          C       0.84467   0.43206   0.80868 
C          C       0.44843   0.62550   0.89524 
C          C       0.37450   0.82293   0.89524 
C          C       0.17707   0.55157   0.89524 
C          C       0.55157   0.37450   0.89524 
C          C       0.62550   0.17707   0.89524 
C          C       0.82293   0.44843   0.89524 
C          C       0.42400   0.64403   0.92216 
C          C       0.35597   0.77997   0.92216 
C          C       0.22003   0.57600   0.92216 
C          C       0.57600   0.35597   0.92216 
C          C       0.64403   0.22003   0.92216 
C          C       0.77997   0.42400   0.92216 
N          N       0.45628   0.56966   0.78840 
N          N       0.43034   0.88662   0.78840 
N          N       0.11338   0.54372   0.78840 
N          N       0.54372   0.43034   0.78840 
N          N       0.56966   0.11338   0.78840 
N          N       0.88662   0.45628   0.78840 
C          C       0.44265   0.53243   0.70785 
C          C       0.46757   0.91022   0.70785 
C          C       0.08978   0.55735   0.70785 
C          C       0.55735   0.46757   0.70785 
C          C       0.53243   0.08978   0.70785 
C          C       0.91022   0.44265   0.70785 
C          C       0.47122   0.51482   0.69845 
C          C       0.48518   0.95640   0.69845 
C          C       0.04360   0.52878   0.69845 
C          C       0.52878   0.48518   0.69845 
C          C       0.51482   0.04360   0.69845 
C          C       0.95640   0.47122   0.69845 
C          C       0.45641   0.47140   0.70888 
C          C       0.52860   0.98501   0.70888 
C          C       0.01499   0.54359   0.70888 
C          C       0.54359   0.52860   0.70888 
C          C       0.47140   0.01499   0.70888 
C          C       0.98501   0.45641   0.70888 
C          C       0.48542   0.45720   0.69821 
C          C       0.54280   0.02822   0.69821 
C          C       0.97178   0.51458   0.69821 
C          C       0.51458   0.54280   0.69821 
C          C       0.45720   0.97178   0.69821 
C          C       0.02822   0.48542   0.69821 
H          H       0.43734   0.67271   0.99563 
H          H       0.32729   0.76463   0.99563 
H          H       0.23537   0.56266   0.99563 
H          H       0.56266   0.32729   0.99563 
H          H       0.67271   0.23537   0.99563 
H          H       0.76463   0.43734   0.99563 
C          C       0.40181   0.51137   0.64182 
C          C       0.48863   0.89044   0.64182 
C          C       0.10956   0.59819   0.64182 
C          C       0.59819   0.48863   0.64182 
C          C       0.51137   0.10956   0.64182 
C          C       0.89044   0.40181   0.64182 
H          H       0.47445   0.42402   0.69546 
H          H       0.57598   0.05043   0.69546 
H          H       0.94957   0.52555   0.69546 
H          H       0.52555   0.57598   0.69546 
H          H       0.42402   0.94957   0.69546 
H          H       0.05043   0.47445   0.69546 
H          H       0.41877   0.40412   0.91489 
H          H       0.59588   0.01465   0.91489 
H          H       0.98535   0.58123   0.91489 
H          H       0.58123   0.59588   0.91489 
H          H       0.40412   0.98535   0.91489 
H          H       0.01465   0.41877   0.91489 
H          H       0.40305   0.38327   0.69941 
H          H       0.61673   0.01978   0.69941 
H          H       0.98022   0.59695   0.69941 
H          H       0.59695   0.61673   0.69941 
H          H       0.38327   0.98022   0.69941 
H          H       0.01978   0.40305   0.69941 
H          H       0.36683   0.38779   0.83841 
H          H       0.61221   0.97904   0.83841 
H          H       0.02096   0.63317   0.83841 
H          H       0.63317   0.61221   0.83841 
H          H       0.38779   0.02096   0.83841 
H          H       0.97904   0.36683   0.83841 
C          C       0.32859   0.49649   0.64377 
C          C       0.50351   0.83210   0.64377 
C          C       0.16790   0.67141   0.64377 
C          C       0.67141   0.50351   0.64377 
C          C       0.49649   0.16790   0.64377 
C          C       0.83210   0.32859   0.64377 
C          C       0.30244   0.50656   0.54866 
C          C       0.49344   0.79588   0.54866 
C          C       0.20412   0.69756   0.54866 
C          C       0.69756   0.49344   0.54866 
C          C       0.50656   0.20412   0.54866 
C          C       0.79588   0.30244   0.54866 
C          C       0.25985   0.47768   0.52955 
C          C       0.52232   0.78217   0.52955 
C          C       0.21783   0.74015   0.52955 
C          C       0.74015   0.52232   0.52955 
C          C       0.47768   0.21783   0.52955 
C          C       0.78217   0.25985   0.52955 
C          C       0.24297   0.43772   0.60013 
C          C       0.56228   0.80525   0.60013 
C          C       0.19475   0.75703   0.60013 
C          C       0.75703   0.56228   0.60013 
C          C       0.43772   0.19475   0.60013 
C          C       0.80525   0.24297   0.60013 
C          C       0.26867   0.42666   0.69020 
C          C       0.57334   0.84201   0.69020 
C          C       0.15799   0.73133   0.69020 
C          C       0.73133   0.57334   0.69020 
C          C       0.42666   0.15799   0.69020 
C          C       0.84201   0.26867   0.69020 
C          C       0.31108   0.45582   0.71276 
C          C       0.54418   0.85526   0.71276 
C          C       0.14474   0.68892   0.71276 
C          C       0.68892   0.54418   0.71276 
C          C       0.45582   0.14474   0.71276 
C          C       0.85526   0.31108   0.71276 
H          H       0.39073   0.48253   0.57093 
H          H       0.51747   0.90820   0.57093 
H          H       0.09180   0.60927   0.57093 
H          H       0.60927   0.51747   0.57093 
H          H       0.48253   0.09180   0.57093 
H          H       0.90820   0.39073   0.57093 
O          O       0.41336   0.44394   0.73895 
O          O       0.55606   0.96942   0.73895 
O          O       0.03058   0.58664   0.73895 
O          O       0.58664   0.55606   0.73895 
O          O       0.44394   0.03058   0.73895 
O          O       0.96942   0.41336   0.73895 
C          C       0.40024   0.40278   0.80074 
C          C       0.59722   0.99746   0.80074 
C          C       0.00254   0.59976   0.80074 
C          C       0.59976   0.59722   0.80074 
C          C       0.40278   0.00254   0.80074 
C          C       0.99746   0.40024   0.80074 
H          H       0.41063   0.70856   0.87658 
H          H       0.29144   0.70207   0.87658 
H          H       0.29793   0.58937   0.87658 
H          H       0.58937   0.29144   0.87658 
H          H       0.70856   0.29793   0.87658 
H          H       0.70207   0.41063   0.87658 
H          H       0.33579   0.57323   0.71924 
H          H       0.42677   0.76256   0.71924 
H          H       0.23744   0.66421   0.71924 
H          H       0.66421   0.42677   0.71924 
H          H       0.57323   0.23744   0.71924 
H          H       0.76256   0.33579   0.71924 
C          C       0.37420   0.52660   0.67103 
C          C       0.47340   0.84760   0.67103 
C          C       0.15240   0.62580   0.67103 
C          C       0.62580   0.47340   0.67103 
C          C       0.52660   0.15240   0.67103 
C          C       0.84760   0.37420   0.67103 
H          H       0.48005   0.64051   0.94511 
H          H       0.35949   0.83954   0.94511 
H          H       0.16046   0.51995   0.94511 
H          H       0.51995   0.35949   0.94511 
H          H       0.64051   0.16046   0.94511 
H          H       0.83954   0.48005   0.94511 
H          H       0.31456   0.53645   0.98783 
H          H       0.46355   0.77811   0.98783 
H          H       0.22189   0.68544   0.98783 
H          H       0.68544   0.46355   0.98783 
H          H       0.53645   0.22189   0.98783 
H          H       0.77811   0.31456   0.98783 
H          H       0.24009   0.48609   0.95730 
H          H       0.51391   0.75400   0.95730 
H          H       0.24600   0.75991   0.95730 
H          H       0.75991   0.51391   0.95730 
H          H       0.48609   0.24600   0.95730 
H          H       0.75400   0.24009   0.95730 
H          H       0.21007   0.41525   0.58391 
H          H       0.58475   0.79482   0.58391 
H          H       0.20518   0.78993   0.58391 
H          H       0.78993   0.58475   0.58391 
H          H       0.41525   0.20518   0.58391 
H          H       0.79482   0.21007   0.58391 
H          H       0.25563   0.39566   0.74483 
H          H       0.60434   0.85997   0.74483 
H          H       0.14003   0.74437   0.74483 
H          H       0.74437   0.60434   0.74483 
H          H       0.39566   0.14003   0.74483 
H          H       0.85997   0.25563   0.74483 
H          H       0.33016   0.44680   0.78673 
H          H       0.55320   0.88336   0.78673 
H          H       0.11664   0.66984   0.78673 
H          H       0.66984   0.55320   0.78673 
H          H       0.44680   0.11664   0.78673 
H          H       0.88336   0.33016   0.78673 
