data_crystal

_cell_length_a    43.91230
_cell_length_b    43.91230
_cell_length_c    5.41240
_cell_angle_alpha 90.00000
_cell_angle_beta  90.00000
_cell_angle_gamma 90.00000

_space_group_name_Hall 'P 1'
_space_group_name_H-M_alt  'P 1'

loop_
_symmetry_equiv_pos_as_xyz
'x,y,z' 

loop_
_atom_site_label
_atom_site_type_symbol
_atom_site_fract_x
_atom_site_fract_y
_atom_site_fract_z
C          C       0.27055   0.77750   0.46174 
C          C       0.72945   0.72250   0.46174 
C          C       0.72945   0.27750   0.53826 
C          C       0.27055   0.22250   0.53826 
C          C       0.72945   0.22250   0.53826 
C          C       0.27055   0.27750   0.53826 
C          C       0.27055   0.72250   0.46174 
C          C       0.72945   0.77750   0.46174 
C          C       0.77055   0.27750   0.96174 
C          C       0.22945   0.22250   0.96174 
C          C       0.22945   0.77750   0.03826 
C          C       0.77055   0.72250   0.03826 
C          C       0.22945   0.72250   0.03826 
C          C       0.77055   0.77750   0.03826 
C          C       0.77055   0.22250   0.96174 
C          C       0.22945   0.27750   0.96174 
C          C       0.29135   0.77747   0.65649 
C          C       0.70865   0.72253   0.65649 
C          C       0.70865   0.27747   0.34351 
C          C       0.29135   0.22253   0.34351 
C          C       0.70865   0.22253   0.34351 
C          C       0.29135   0.27747   0.34351 
C          C       0.29135   0.72253   0.65649 
C          C       0.70865   0.77747   0.65649 
C          C       0.79135   0.27747   0.15649 
C          C       0.20865   0.22253   0.15649 
C          C       0.20865   0.77747   0.84351 
C          C       0.79135   0.72253   0.84351 
C          C       0.20865   0.72253   0.84351 
C          C       0.79135   0.77747   0.84351 
C          C       0.79135   0.22253   0.15649 
C          C       0.20865   0.27747   0.15649 
C          C       0.36346   0.77776   0.40618 
C          C       0.63654   0.72224   0.40618 
C          C       0.63654   0.27776   0.59382 
C          C       0.36346   0.22224   0.59382 
C          C       0.63654   0.22224   0.59382 
C          C       0.36346   0.27776   0.59382 
C          C       0.36346   0.72224   0.40618 
C          C       0.63654   0.77776   0.40618 
C          C       0.86346   0.27776   0.90618 
C          C       0.13654   0.22224   0.90618 
C          C       0.13654   0.77776   0.09382 
C          C       0.86346   0.72224   0.09382 
C          C       0.13654   0.72224   0.09382 
C          C       0.86346   0.77776   0.09382 
C          C       0.86346   0.22224   0.90618 
C          C       0.13654   0.27776   0.90618 
C          C       0.38498   0.77744   0.59697 
C          C       0.61502   0.72256   0.59697 
C          C       0.61502   0.27744   0.40303 
C          C       0.38498   0.22256   0.40303 
C          C       0.61502   0.22256   0.40303 
C          C       0.38498   0.27744   0.40303 
C          C       0.38498   0.72256   0.59697 
C          C       0.61502   0.77744   0.59697 
C          C       0.88498   0.27744   0.09697 
C          C       0.11502   0.22256   0.09697 
C          C       0.11502   0.77744   0.90303 
C          C       0.88498   0.72256   0.90303 
C          C       0.11502   0.72256   0.90303 
C          C       0.88498   0.77744   0.90303 
C          C       0.88498   0.22256   0.09697 
C          C       0.11502   0.27744   0.09697 
C          C       0.42997   0.72283   0.99245 
C          C       0.57003   0.77717   0.99245 
C          C       0.57003   0.22283   0.00755 
C          C       0.42997   0.27717   0.00755 
C          C       0.57003   0.27717   0.00755 
C          C       0.42997   0.22283   0.00755 
C          C       0.42997   0.77717   0.99245 
C          C       0.57003   0.72283   0.99245 
C          C       0.92997   0.22283   0.49245 
C          C       0.07003   0.27717   0.49245 
C          C       0.07003   0.72283   0.50755 
C          C       0.92997   0.77717   0.50755 
C          C       0.07003   0.77717   0.50755 
C          C       0.92997   0.72283   0.50755 
C          C       0.92997   0.27717   0.49245 
C          C       0.07003   0.22283   0.49245 
C          C       0.45606   0.72291   0.14035 
C          C       0.54394   0.77709   0.14035 
C          C       0.54394   0.22291   0.85965 
C          C       0.45606   0.27709   0.85965 
C          C       0.54394   0.27709   0.85965 
C          C       0.45606   0.22291   0.85965 
C          C       0.45606   0.77709   0.14035 
C          C       0.54394   0.72291   0.14035 
C          C       0.95606   0.22291   0.64035 
C          C       0.04394   0.27709   0.64035 
C          C       0.04394   0.72291   0.35965 
C          C       0.95606   0.77709   0.35965 
C          C       0.04394   0.77709   0.35965 
C          C       0.95606   0.72291   0.35965 
C          C       0.95606   0.27709   0.64035 
C          C       0.04394   0.22291   0.64035 
C          C       0.47291   0.29394   0.39034 
C          C       0.52709   0.20606   0.39034 
C          C       0.52709   0.79394   0.60966 
C          C       0.47291   0.70606   0.60966 
C          C       0.52709   0.70606   0.60966 
C          C       0.47291   0.79394   0.60966 
C          C       0.47291   0.20606   0.39034 
C          C       0.52709   0.29394   0.39034 
C          C       0.97291   0.79394   0.89034 
C          C       0.02709   0.70606   0.89034 
C          C       0.02709   0.29394   0.10966 
C          C       0.97291   0.20606   0.10966 
C          C       0.02709   0.20606   0.10966 
C          C       0.97291   0.29394   0.10966 
C          C       0.97291   0.70606   0.89034 
C          C       0.02709   0.79394   0.89034 
C          C       0.47283   0.32003   0.24243 
C          C       0.52717   0.17997   0.24243 
C          C       0.52717   0.82003   0.75757 
C          C       0.47283   0.67997   0.75757 
C          C       0.52717   0.67997   0.75757 
C          C       0.47283   0.82003   0.75757 
C          C       0.47283   0.17997   0.24243 
C          C       0.52717   0.32003   0.24243 
C          C       0.97283   0.82003   0.74243 
C          C       0.02717   0.67997   0.74243 
C          C       0.02717   0.32003   0.25757 
C          C       0.97283   0.17997   0.25757 
C          C       0.02717   0.17997   0.25757 
C          C       0.97283   0.32003   0.25757 
C          C       0.97283   0.67997   0.74243 
C          C       0.02717   0.82003   0.74243 
C          C       0.52744   0.36503   0.84697 
C          C       0.47256   0.13497   0.84697 
C          C       0.47256   0.86503   0.15303 
C          C       0.52744   0.63497   0.15303 
C          C       0.47256   0.63497   0.15303 
C          C       0.52744   0.86503   0.15303 
C          C       0.52744   0.13497   0.84697 
C          C       0.47256   0.36503   0.84697 
C          C       0.02744   0.86503   0.34697 
C          C       0.97256   0.63497   0.34697 
C          C       0.97256   0.36503   0.65303 
C          C       0.02744   0.13497   0.65303 
C          C       0.97256   0.13497   0.65303 
C          C       0.02744   0.36503   0.65303 
C          C       0.02744   0.63497   0.34697 
C          C       0.97256   0.86503   0.34697 
C          C       0.52776   0.38654   0.65618 
C          C       0.47224   0.11346   0.65618 
C          C       0.47224   0.88654   0.34382 
C          C       0.52776   0.61346   0.34382 
C          C       0.47224   0.61346   0.34382 
C          C       0.52776   0.88654   0.34382 
C          C       0.52776   0.11346   0.65618 
C          C       0.47224   0.38654   0.65618 
C          C       0.02776   0.88654   0.15618 
C          C       0.97224   0.61346   0.15618 
C          C       0.97224   0.38654   0.84382 
C          C       0.02776   0.11346   0.84382 
C          C       0.97224   0.11346   0.84382 
C          C       0.02776   0.38654   0.84382 
C          C       0.02776   0.61346   0.15618 
C          C       0.97224   0.88654   0.15618 
C          C       0.47253   0.45865   0.90649 
C          C       0.52747   0.04135   0.90649 
C          C       0.52747   0.95865   0.09351 
C          C       0.47253   0.54135   0.09351 
C          C       0.52747   0.54135   0.09351 
C          C       0.47253   0.95865   0.09351 
C          C       0.47253   0.04135   0.90649 
C          C       0.52747   0.45865   0.90649 
C          C       0.97253   0.95865   0.40649 
C          C       0.02747   0.54135   0.40649 
C          C       0.02747   0.45865   0.59351 
C          C       0.97253   0.04135   0.59351 
C          C       0.02747   0.04135   0.59351 
C          C       0.97253   0.45865   0.59351 
C          C       0.97253   0.54135   0.40649 
C          C       0.02747   0.95865   0.40649 
C          C       0.47250   0.47945   0.71174 
C          C       0.52750   0.02055   0.71174 
C          C       0.52750   0.97945   0.28826 
C          C       0.47250   0.52055   0.28826 
C          C       0.52750   0.52055   0.28826 
C          C       0.47250   0.97945   0.28826 
C          C       0.47250   0.02055   0.71174 
C          C       0.52750   0.47945   0.71174 
C          C       0.97250   0.97945   0.21174 
C          C       0.02750   0.52055   0.21174 
C          C       0.02750   0.47945   0.78826 
C          C       0.97250   0.02055   0.78826 
C          C       0.02750   0.02055   0.78826 
C          C       0.97250   0.47945   0.78826 
C          C       0.97250   0.52055   0.21174 
C          C       0.02750   0.97945   0.21174 
C          C       0.64747   0.19236   0.69616 
C          C       0.35253   0.30764   0.69616 
C          C       0.35253   0.69236   0.30384 
C          C       0.64747   0.80764   0.30384 
C          C       0.35253   0.80764   0.30384 
C          C       0.64747   0.69236   0.30384 
C          C       0.64747   0.30764   0.69616 
C          C       0.35253   0.19236   0.69616 
C          C       0.14747   0.69236   0.19616 
C          C       0.85253   0.80764   0.19616 
C          C       0.85253   0.19236   0.80384 
C          C       0.14747   0.30764   0.80384 
C          C       0.85253   0.30764   0.80384 
C          C       0.14747   0.19236   0.80384 
C          C       0.14747   0.80764   0.19616 
C          C       0.85253   0.69236   0.19616 
C          C       0.66031   0.17188   0.49745 
C          C       0.33969   0.32812   0.49745 
C          C       0.33969   0.67188   0.50255 
C          C       0.66031   0.82812   0.50255 
C          C       0.33969   0.82812   0.50255 
C          C       0.66031   0.67188   0.50255 
C          C       0.66031   0.32812   0.49745 
C          C       0.33969   0.17188   0.49745 
C          C       0.16031   0.67188   0.99745 
C          C       0.83969   0.82812   0.99745 
C          C       0.83969   0.17188   0.00255 
C          C       0.16031   0.32812   0.00255 
C          C       0.83969   0.32812   0.00255 
C          C       0.16031   0.17188   0.00255 
C          C       0.16031   0.82812   0.99745 
C          C       0.83969   0.67188   0.99745 
C          C       0.62204   0.17586   0.82931 
C          C       0.37796   0.32414   0.82931 
C          C       0.37796   0.67586   0.17069 
C          C       0.62204   0.82414   0.17069 
C          C       0.37796   0.82414   0.17069 
C          C       0.62204   0.67586   0.17069 
C          C       0.62204   0.32414   0.82931 
C          C       0.37796   0.17586   0.82931 
C          C       0.12204   0.67586   0.32931 
C          C       0.87796   0.82414   0.32931 
C          C       0.87796   0.17586   0.67069 
C          C       0.12204   0.32414   0.67069 
C          C       0.87796   0.32414   0.67069 
C          C       0.12204   0.17586   0.67069 
C          C       0.12204   0.82414   0.32931 
C          C       0.87796   0.67586   0.32931 
C          C       0.44236   0.39747   0.55384 
C          C       0.55764   0.10253   0.55384 
C          C       0.55764   0.89747   0.44616 
C          C       0.44236   0.60253   0.44616 
C          C       0.55764   0.60253   0.44616 
C          C       0.44236   0.89747   0.44616 
C          C       0.44236   0.10253   0.55384 
C          C       0.55764   0.39747   0.55384 
C          C       0.94236   0.89747   0.05384 
C          C       0.05764   0.60253   0.05384 
C          C       0.05764   0.39747   0.94616 
C          C       0.94236   0.10253   0.94616 
C          C       0.05764   0.10253   0.94616 
C          C       0.94236   0.39747   0.94616 
C          C       0.94236   0.60253   0.05384 
C          C       0.05764   0.89747   0.05384 
C          C       0.42586   0.37204   0.42068 
C          C       0.57414   0.12796   0.42068 
C          C       0.57414   0.87204   0.57932 
C          C       0.42586   0.62796   0.57932 
C          C       0.57414   0.62796   0.57932 
C          C       0.42586   0.87204   0.57932 
C          C       0.42586   0.12796   0.42068 
C          C       0.57414   0.37204   0.42068 
C          C       0.92586   0.87204   0.92068 
C          C       0.07414   0.62796   0.92068 
C          C       0.07414   0.37204   0.07932 
C          C       0.92586   0.12796   0.07932 
C          C       0.07414   0.12796   0.07932 
C          C       0.92586   0.37204   0.07932 
C          C       0.92586   0.62796   0.92068 
C          C       0.07414   0.87204   0.92068 
C          C       0.42188   0.41031   0.75255 
C          C       0.57812   0.08969   0.75255 
C          C       0.57812   0.91031   0.24745 
C          C       0.42188   0.58969   0.24745 
C          C       0.57812   0.58969   0.24745 
C          C       0.42188   0.91031   0.24745 
C          C       0.42188   0.08969   0.75255 
C          C       0.57812   0.41031   0.75255 
C          C       0.92188   0.91031   0.25255 
C          C       0.07812   0.58969   0.25255 
C          C       0.07812   0.41031   0.74745 
C          C       0.92188   0.08969   0.74745 
C          C       0.07812   0.08969   0.74745 
C          C       0.92188   0.41031   0.74745 
C          C       0.92188   0.58969   0.25255 
C          C       0.07812   0.91031   0.25255 
H          H       0.26174   0.80001   0.38530 
H          H       0.73826   0.69999   0.38530 
H          H       0.73826   0.30001   0.61470 
H          H       0.26174   0.19999   0.61470 
H          H       0.73826   0.19999   0.61470 
H          H       0.26174   0.30001   0.61470 
H          H       0.26174   0.69999   0.38530 
H          H       0.73826   0.80001   0.38530 
H          H       0.76174   0.30001   0.88530 
H          H       0.23826   0.19999   0.88530 
H          H       0.23826   0.80001   0.11470 
H          H       0.76174   0.69999   0.11470 
H          H       0.23826   0.69999   0.11470 
H          H       0.76174   0.80001   0.11470 
H          H       0.76174   0.19999   0.88530 
H          H       0.23826   0.30001   0.88530 
H          H       0.29968   0.79995   0.73672 
H          H       0.70032   0.70005   0.73672 
H          H       0.70032   0.29995   0.26328 
H          H       0.29968   0.20005   0.26328 
H          H       0.70032   0.20005   0.26328 
H          H       0.29968   0.29995   0.26328 
H          H       0.29968   0.70005   0.73672 
H          H       0.70032   0.79995   0.73672 
H          H       0.79968   0.29995   0.23672 
H          H       0.20032   0.20005   0.23672 
H          H       0.20032   0.79995   0.76328 
H          H       0.79968   0.70005   0.76328 
H          H       0.20032   0.70005   0.76328 
H          H       0.79968   0.79995   0.76328 
H          H       0.79968   0.20005   0.23672 
H          H       0.20032   0.29995   0.23672 
H          H       0.39441   0.79979   0.67152 
H          H       0.60559   0.70021   0.67152 
H          H       0.60559   0.29979   0.32848 
H          H       0.39441   0.20021   0.32848 
H          H       0.60559   0.20021   0.32848 
H          H       0.39441   0.29979   0.32848 
H          H       0.39441   0.70021   0.67152 
H          H       0.60559   0.79979   0.67152 
H          H       0.89441   0.29979   0.17152 
H          H       0.10559   0.20021   0.17152 
H          H       0.10559   0.79979   0.82848 
H          H       0.89441   0.70021   0.82848 
H          H       0.10559   0.70021   0.82848 
H          H       0.89441   0.79979   0.82848 
H          H       0.89441   0.20021   0.17152 
H          H       0.10559   0.29979   0.17152 
H          H       0.41842   0.70036   0.94374 
H          H       0.58158   0.79964   0.94374 
H          H       0.58158   0.20036   0.05626 
H          H       0.41842   0.29964   0.05626 
H          H       0.58158   0.29964   0.05626 
H          H       0.41842   0.20036   0.05626 
H          H       0.41842   0.79964   0.94374 
H          H       0.58158   0.70036   0.94374 
H          H       0.91842   0.20036   0.44374 
H          H       0.08158   0.29964   0.44374 
H          H       0.08158   0.70036   0.55626 
H          H       0.91842   0.79964   0.55626 
H          H       0.08158   0.79964   0.55626 
H          H       0.91842   0.70036   0.55626 
H          H       0.91842   0.29964   0.44374 
H          H       0.08158   0.20036   0.44374 
H          H       0.46599   0.70049   0.20907 
H          H       0.53401   0.79951   0.20907 
H          H       0.53401   0.20049   0.79093 
H          H       0.46599   0.29951   0.79093 
H          H       0.53401   0.29951   0.79093 
H          H       0.46599   0.20049   0.79093 
H          H       0.46599   0.79951   0.20907 
H          H       0.53401   0.70049   0.20907 
H          H       0.96599   0.20049   0.70907 
H          H       0.03401   0.29951   0.70907 
H          H       0.03401   0.70049   0.29093 
H          H       0.96599   0.79951   0.29093 
H          H       0.03401   0.79951   0.29093 
H          H       0.96599   0.70049   0.29093 
H          H       0.96599   0.29951   0.70907 
H          H       0.03401   0.20049   0.70907 
H          H       0.45049   0.28401   0.45906 
H          H       0.54951   0.21599   0.45906 
H          H       0.54951   0.78401   0.54094 
H          H       0.45049   0.71599   0.54094 
H          H       0.54951   0.71599   0.54094 
H          H       0.45049   0.78401   0.54094 
H          H       0.45049   0.21599   0.45906 
H          H       0.54951   0.28401   0.45906 
H          H       0.95049   0.78401   0.95906 
H          H       0.04951   0.71599   0.95906 
H          H       0.04951   0.28401   0.04094 
H          H       0.95049   0.21599   0.04094 
H          H       0.04951   0.21599   0.04094 
H          H       0.95049   0.28401   0.04094 
H          H       0.95049   0.71599   0.95906 
H          H       0.04951   0.78401   0.95906 
H          H       0.45036   0.33158   0.19373 
H          H       0.54964   0.16842   0.19373 
H          H       0.54964   0.83158   0.80627 
H          H       0.45036   0.66842   0.80627 
H          H       0.54964   0.66842   0.80627 
H          H       0.45036   0.83158   0.80627 
H          H       0.45036   0.16842   0.19373 
H          H       0.54964   0.33158   0.19373 
H          H       0.95036   0.83158   0.69373 
H          H       0.04964   0.66842   0.69373 
H          H       0.04964   0.33158   0.30627 
H          H       0.95036   0.16842   0.30627 
H          H       0.04964   0.16842   0.30627 
H          H       0.95036   0.33158   0.30627 
H          H       0.95036   0.66842   0.69373 
H          H       0.04964   0.83158   0.69373 
H          H       0.54979   0.35559   0.92152 
H          H       0.45021   0.14441   0.92152 
H          H       0.45021   0.85559   0.07848 
H          H       0.54979   0.64441   0.07848 
H          H       0.45021   0.64441   0.07848 
H          H       0.54979   0.85559   0.07848 
H          H       0.54979   0.14441   0.92152 
H          H       0.45021   0.35559   0.92152 
H          H       0.04979   0.85559   0.42152 
H          H       0.95021   0.64441   0.42152 
H          H       0.95021   0.35559   0.57848 
H          H       0.04979   0.14441   0.57848 
H          H       0.95021   0.14441   0.57848 
H          H       0.04979   0.35559   0.57848 
H          H       0.04979   0.64441   0.42152 
H          H       0.95021   0.85559   0.42152 
H          H       0.45005   0.45032   0.98672 
H          H       0.54995   0.04968   0.98672 
H          H       0.54995   0.95032   0.01328 
H          H       0.45005   0.54968   0.01328 
H          H       0.54995   0.54968   0.01328 
H          H       0.45005   0.95032   0.01328 
H          H       0.45005   0.04968   0.98672 
H          H       0.54995   0.45032   0.98672 
H          H       0.95005   0.95032   0.48672 
H          H       0.04995   0.54968   0.48672 
H          H       0.04995   0.45032   0.51328 
H          H       0.95005   0.04968   0.51328 
H          H       0.04995   0.04968   0.51328 
H          H       0.95005   0.45032   0.51328 
H          H       0.95005   0.54968   0.48672 
H          H       0.04995   0.95032   0.48672 
H          H       0.44999   0.48826   0.63530 
H          H       0.55001   0.01174   0.63530 
H          H       0.55001   0.98826   0.36470 
H          H       0.44999   0.51174   0.36470 
H          H       0.55001   0.51174   0.36470 
H          H       0.44999   0.98826   0.36470 
H          H       0.44999   0.01174   0.63530 
H          H       0.55001   0.48826   0.63530 
H          H       0.94999   0.98826   0.13530 
H          H       0.05001   0.51174   0.13530 
H          H       0.05001   0.48826   0.86470 
H          H       0.94999   0.01174   0.86470 
H          H       0.05001   0.01174   0.86470 
H          H       0.94999   0.48826   0.86470 
H          H       0.94999   0.51174   0.13530 
H          H       0.05001   0.98826   0.13530 
H          H       0.66641   0.19729   0.83328 
H          H       0.33359   0.30271   0.83328 
H          H       0.33359   0.69729   0.16672 
H          H       0.66641   0.80271   0.16672 
H          H       0.33359   0.80271   0.16672 
H          H       0.66641   0.69729   0.16672 
H          H       0.66641   0.30271   0.83328 
H          H       0.33359   0.19729   0.83328 
H          H       0.16641   0.69729   0.33328 
H          H       0.83359   0.80271   0.33328 
H          H       0.83359   0.19729   0.66672 
H          H       0.16641   0.30271   0.66672 
H          H       0.83359   0.30271   0.66672 
H          H       0.16641   0.19729   0.66672 
H          H       0.16641   0.80271   0.33328 
H          H       0.83359   0.69729   0.33328 
H          H       0.68625   0.17194   0.50795 
H          H       0.31375   0.32806   0.50795 
H          H       0.31375   0.67194   0.49205 
H          H       0.68625   0.82806   0.49205 
H          H       0.31375   0.82806   0.49205 
H          H       0.68625   0.67194   0.49205 
H          H       0.68625   0.32806   0.50795 
H          H       0.31375   0.17194   0.50795 
H          H       0.18625   0.67194   0.00795 
H          H       0.81375   0.82806   0.00795 
H          H       0.81375   0.17194   0.99205 
H          H       0.18625   0.32806   0.99205 
H          H       0.81375   0.32806   0.99205 
H          H       0.18625   0.17194   0.99205 
H          H       0.18625   0.82806   0.00795 
H          H       0.81375   0.67194   0.00795 
H          H       0.65279   0.18066   0.31064 
H          H       0.34721   0.31934   0.31064 
H          H       0.34721   0.68066   0.68936 
H          H       0.65279   0.81934   0.68936 
H          H       0.34721   0.81934   0.68936 
H          H       0.65279   0.68066   0.68936 
H          H       0.65279   0.31934   0.31064 
H          H       0.34721   0.18066   0.31064 
H          H       0.15279   0.68066   0.81064 
H          H       0.84721   0.81934   0.81064 
H          H       0.84721   0.18066   0.18936 
H          H       0.15279   0.31934   0.18936 
H          H       0.84721   0.31934   0.18936 
H          H       0.15279   0.18066   0.18936 
H          H       0.15279   0.81934   0.81064 
H          H       0.84721   0.68066   0.81064 
H          H       0.65152   0.14768   0.52456 
H          H       0.34848   0.35232   0.52456 
H          H       0.34848   0.64768   0.47544 
H          H       0.65152   0.85232   0.47544 
H          H       0.34848   0.85232   0.47544 
H          H       0.65152   0.64768   0.47544 
H          H       0.65152   0.35232   0.52456 
H          H       0.34848   0.14768   0.52456 
H          H       0.15152   0.64768   0.02456 
H          H       0.84848   0.85232   0.02456 
H          H       0.84848   0.14768   0.97544 
H          H       0.15152   0.35232   0.97544 
H          H       0.84848   0.35232   0.97544 
H          H       0.15152   0.14768   0.97544 
H          H       0.15152   0.85232   0.02456 
H          H       0.84848   0.64768   0.02456 
H          H       0.63225   0.15869   0.96266 
H          H       0.36775   0.34131   0.96266 
H          H       0.36775   0.65869   0.03734 
H          H       0.63225   0.84131   0.03734 
H          H       0.36775   0.84131   0.03734 
H          H       0.63225   0.65869   0.03734 
H          H       0.63225   0.34131   0.96266 
H          H       0.36775   0.15869   0.96266 
H          H       0.13225   0.65869   0.46266 
H          H       0.86775   0.84131   0.46266 
H          H       0.86775   0.15869   0.53734 
H          H       0.13225   0.34131   0.53734 
H          H       0.86775   0.34131   0.53734 
H          H       0.13225   0.15869   0.53734 
H          H       0.13225   0.84131   0.46266 
H          H       0.86775   0.65869   0.46266 
H          H       0.60712   0.16342   0.69091 
H          H       0.39288   0.33658   0.69091 
H          H       0.39288   0.66342   0.30909 
H          H       0.60712   0.83658   0.30909 
H          H       0.39288   0.83658   0.30909 
H          H       0.60712   0.66342   0.30909 
H          H       0.60712   0.33658   0.69091 
H          H       0.39288   0.16342   0.69091 
H          H       0.10712   0.66342   0.19091 
H          H       0.89288   0.83658   0.19091 
H          H       0.89288   0.16342   0.80909 
H          H       0.10712   0.33658   0.80909 
H          H       0.89288   0.33658   0.80909 
H          H       0.10712   0.16342   0.80909 
H          H       0.10712   0.83658   0.19091 
H          H       0.89288   0.66342   0.19091 
H          H       0.60765   0.19306   0.93444 
H          H       0.39235   0.30694   0.93444 
H          H       0.39235   0.69306   0.06556 
H          H       0.60765   0.80694   0.06556 
H          H       0.39235   0.80694   0.06556 
H          H       0.60765   0.69306   0.06556 
H          H       0.60765   0.30694   0.93444 
H          H       0.39235   0.19306   0.93444 
H          H       0.10765   0.69306   0.43444 
H          H       0.89235   0.80694   0.43444 
H          H       0.89235   0.19306   0.56556 
H          H       0.10765   0.30694   0.56556 
H          H       0.89235   0.30694   0.56556 
H          H       0.10765   0.19306   0.56556 
H          H       0.10765   0.80694   0.43444 
H          H       0.89235   0.69306   0.43444 
H          H       0.44729   0.41641   0.41673 
H          H       0.55271   0.08359   0.41673 
H          H       0.55271   0.91641   0.58327 
H          H       0.44729   0.58359   0.58327 
H          H       0.55271   0.58359   0.58327 
H          H       0.44729   0.91641   0.58327 
H          H       0.44729   0.08359   0.41673 
H          H       0.55271   0.41641   0.41673 
H          H       0.94729   0.91641   0.91673 
H          H       0.05271   0.58359   0.91673 
H          H       0.05271   0.41641   0.08327 
H          H       0.94729   0.08359   0.08327 
H          H       0.05271   0.08359   0.08327 
H          H       0.94729   0.41641   0.08327 
H          H       0.94729   0.58359   0.91673 
H          H       0.05271   0.91641   0.91673 
H          H       0.44092   0.35089   0.41595 
H          H       0.55908   0.14911   0.41595 
H          H       0.55908   0.85089   0.58405 
H          H       0.44092   0.64911   0.58405 
H          H       0.55908   0.64911   0.58405 
H          H       0.44092   0.85089   0.58405 
H          H       0.44092   0.14911   0.41595 
H          H       0.55908   0.35089   0.41595 
H          H       0.94092   0.85089   0.91595 
H          H       0.05908   0.64911   0.91595 
H          H       0.05908   0.35089   0.08405 
H          H       0.94092   0.14911   0.08405 
H          H       0.05908   0.14911   0.08405 
H          H       0.94092   0.35089   0.08405 
H          H       0.94092   0.64911   0.91595 
H          H       0.05908   0.85089   0.91595 
H          H       0.42054   0.37957   0.22565 
H          H       0.57946   0.12043   0.22565 
H          H       0.57946   0.87957   0.77435 
H          H       0.42054   0.62043   0.77435 
H          H       0.57946   0.62043   0.77435 
H          H       0.42054   0.87957   0.77435 
H          H       0.42054   0.12043   0.22565 
H          H       0.57946   0.37957   0.22565 
H          H       0.92054   0.87957   0.72565 
H          H       0.07946   0.62043   0.72565 
H          H       0.07946   0.37957   0.27435 
H          H       0.92054   0.12043   0.27435 
H          H       0.07946   0.12043   0.27435 
H          H       0.92054   0.37957   0.27435 
H          H       0.92054   0.62043   0.72565 
H          H       0.07946   0.87957   0.72565 
H          H       0.40371   0.36656   0.52033 
H          H       0.59629   0.13344   0.52033 
H          H       0.59629   0.86656   0.47967 
H          H       0.40371   0.63344   0.47967 
H          H       0.59629   0.63344   0.47967 
H          H       0.40371   0.86656   0.47967 
H          H       0.40371   0.13344   0.52033 
H          H       0.59629   0.36656   0.52033 
H          H       0.90371   0.86656   0.02033 
H          H       0.09629   0.63344   0.02033 
H          H       0.09629   0.36656   0.97967 
H          H       0.90371   0.13344   0.97967 
H          H       0.09629   0.13344   0.97967 
H          H       0.90371   0.36656   0.97967 
H          H       0.90371   0.63344   0.02033 
H          H       0.09629   0.86656   0.02033 
H          H       0.40487   0.42684   0.66775 
H          H       0.59513   0.07316   0.66775 
H          H       0.59513   0.92684   0.33225 
H          H       0.40487   0.57316   0.33225 
H          H       0.59513   0.57316   0.33225 
H          H       0.40487   0.92684   0.33225 
H          H       0.40487   0.07316   0.66775 
H          H       0.59513   0.42684   0.66775 
H          H       0.90487   0.92684   0.16775 
H          H       0.09513   0.57316   0.16775 
H          H       0.09513   0.42684   0.83225 
H          H       0.90487   0.07316   0.83225 
H          H       0.09513   0.07316   0.83225 
H          H       0.90487   0.42684   0.83225 
H          H       0.90487   0.57316   0.16775 
H          H       0.09513   0.92684   0.16775 
H          H       0.43634   0.42281   0.89375 
H          H       0.56366   0.07719   0.89375 
H          H       0.56366   0.92281   0.10625 
H          H       0.43634   0.57719   0.10625 
H          H       0.56366   0.57719   0.10625 
H          H       0.43634   0.92281   0.10625 
H          H       0.43634   0.07719   0.89375 
H          H       0.56366   0.42281   0.89375 
H          H       0.93634   0.92281   0.39375 
H          H       0.06366   0.57719   0.39375 
H          H       0.06366   0.42281   0.60625 
H          H       0.93634   0.07719   0.60625 
H          H       0.06366   0.07719   0.60625 
H          H       0.93634   0.42281   0.60625 
H          H       0.93634   0.57719   0.39375 
H          H       0.06366   0.92281   0.39375 
H          H       0.40906   0.39090   0.84537 
H          H       0.59094   0.10910   0.84537 
H          H       0.59094   0.89090   0.15463 
H          H       0.40906   0.60910   0.15463 
H          H       0.59094   0.60910   0.15463 
H          H       0.40906   0.89090   0.15463 
H          H       0.40906   0.10910   0.84537 
H          H       0.59094   0.39090   0.84537 
H          H       0.90906   0.89090   0.34537 
H          H       0.09094   0.60910   0.34537 
H          H       0.09094   0.39090   0.65463 
H          H       0.90906   0.10910   0.65463 
H          H       0.09094   0.10910   0.65463 
H          H       0.90906   0.39090   0.65463 
H          H       0.90906   0.60910   0.34537 
H          H       0.09094   0.89090   0.34537 
C          C       0.30203   0.75000   0.75391 
C          C       0.69797   0.75000   0.75391 
C          C       0.69797   0.25000   0.24609 
C          C       0.30203   0.25000   0.24609 
C          C       0.80203   0.25000   0.25391 
C          C       0.19797   0.25000   0.25391 
C          C       0.19797   0.75000   0.74609 
C          C       0.80203   0.75000   0.74609 
C          C       0.26031   0.75000   0.35845 
C          C       0.73969   0.75000   0.35845 
C          C       0.73969   0.25000   0.64155 
C          C       0.26031   0.25000   0.64155 
C          C       0.76031   0.25000   0.85845 
C          C       0.23969   0.25000   0.85845 
C          C       0.23969   0.75000   0.14155 
C          C       0.76031   0.75000   0.14155 
N          N       0.32586   0.75000   0.15412 
N          N       0.67414   0.75000   0.15412 
N          N       0.67414   0.25000   0.84588 
N          N       0.32586   0.25000   0.84588 
N          N       0.82586   0.25000   0.65412 
N          N       0.17414   0.25000   0.65412 
N          N       0.17414   0.75000   0.34588 
N          N       0.82586   0.75000   0.34588 
C          C       0.32856   0.75000   0.91873 
C          C       0.67144   0.75000   0.91873 
C          C       0.67144   0.25000   0.08127 
C          C       0.32856   0.25000   0.08127 
C          C       0.82856   0.25000   0.41873 
C          C       0.17144   0.25000   0.41873 
C          C       0.17144   0.75000   0.58127 
C          C       0.82856   0.75000   0.58127 
C          C       0.39528   0.75000   0.69937 
C          C       0.60472   0.75000   0.69937 
C          C       0.60472   0.25000   0.30063 
C          C       0.39528   0.25000   0.30063 
C          C       0.89528   0.25000   0.19937 
C          C       0.10472   0.25000   0.19937 
C          C       0.10472   0.75000   0.80063 
C          C       0.89528   0.75000   0.80063 
C          C       0.35184   0.75000   0.31469 
C          C       0.64816   0.75000   0.31469 
C          C       0.64816   0.25000   0.68531 
C          C       0.35184   0.25000   0.68531 
C          C       0.85184   0.25000   0.81469 
C          C       0.14816   0.25000   0.81469 
C          C       0.14816   0.75000   0.18531 
C          C       0.85184   0.75000   0.18531 
C          C       0.47083   0.75000   0.20905 
C          C       0.52917   0.75000   0.20905 
C          C       0.52917   0.25000   0.79095 
C          C       0.47083   0.25000   0.79095 
C          C       0.97083   0.25000   0.70905 
C          C       0.02917   0.25000   0.70905 
C          C       0.02917   0.75000   0.29095 
C          C       0.97083   0.75000   0.29095 
C          C       0.41781   0.75000   0.90329 
C          C       0.58219   0.75000   0.90329 
C          C       0.58219   0.25000   0.09671 
C          C       0.41781   0.25000   0.09671 
C          C       0.91781   0.25000   0.40329 
C          C       0.08219   0.25000   0.40329 
C          C       0.08219   0.75000   0.59671 
C          C       0.91781   0.75000   0.59671 
C          C       0.50000   0.75000   0.37501 
C          C       0.50000   0.25000   0.62499 
C          C      -0.00000   0.25000   0.87501 
C          C      -0.00000   0.75000   0.12499 
C          C       0.50000   0.33219   0.15328 
C          C       0.50000   0.16781   0.15328 
C          C       0.50000   0.83219   0.84672 
C          C       0.50000   0.66781   0.84672 
C          C      -0.00000   0.83219   0.65328 
C          C      -0.00000   0.66781   0.65328 
C          C      -0.00000   0.33219   0.34672 
C          C      -0.00000   0.16781   0.34672 
C          C       0.50000   0.27917   0.45903 
C          C       0.50000   0.22083   0.45903 
C          C       0.50000   0.77917   0.54097 
C          C       0.50000   0.72083   0.54097 
C          C      -0.00000   0.77917   0.95903 
C          C      -0.00000   0.72083   0.95903 
C          C      -0.00000   0.27917   0.04097 
C          C      -0.00000   0.22083   0.04097 
C          C       0.50000   0.39816   0.56469 
C          C       0.50000   0.10184   0.56469 
C          C       0.50000   0.89816   0.43531 
C          C       0.50000   0.60184   0.43531 
C          C      -0.00000   0.89816   0.06469 
C          C      -0.00000   0.60184   0.06469 
C          C      -0.00000   0.39816   0.93531 
C          C      -0.00000   0.10184   0.93531 
C          C       0.50000   0.35472   0.94937 
C          C       0.50000   0.14528   0.94937 
C          C       0.50000   0.85472   0.05063 
C          C       0.50000   0.64528   0.05063 
C          C      -0.00000   0.85472   0.44937 
C          C      -0.00000   0.64528   0.44937 
C          C      -0.00000   0.35472   0.55063 
C          C      -0.00000   0.14528   0.55063 
C          C       0.50000   0.48969   0.60845 
C          C       0.50000   0.01031   0.60845 
C          C       0.50000   0.98969   0.39155 
C          C       0.50000   0.51031   0.39155 
C          C      -0.00000   0.98969   0.10845 
C          C      -0.00000   0.51031   0.10845 
C          C      -0.00000   0.48969   0.89155 
C          C      -0.00000   0.01031   0.89155 
C          C       0.50000   0.44797   0.00391 
C          C       0.50000   0.05203   0.00391 
C          C       0.50000   0.94797   0.99609 
C          C       0.50000   0.55203   0.99609 
C          C      -0.00000   0.94797   0.50391 
C          C      -0.00000   0.55203   0.50391 
C          C      -0.00000   0.44797   0.49609 
C          C      -0.00000   0.05203   0.49609 
N          N       0.50000   0.57586   0.59588 
N          N       0.50000   0.92414   0.59588 
N          N       0.50000   0.07586   0.40412 
N          N       0.50000   0.42414   0.40412 
N          N      -0.00000   0.07586   0.09588 
N          N      -0.00000   0.42414   0.09588 
N          N      -0.00000   0.57586   0.90412 
N          N      -0.00000   0.92414   0.90412 
C          C       0.50000   0.57855   0.83127 
C          C       0.50000   0.92145   0.83127 
C          C       0.50000   0.07855   0.16873 
C          C       0.50000   0.42145   0.16873 
C          C      -0.00000   0.07855   0.33127 
C          C      -0.00000   0.42145   0.33127 
C          C      -0.00000   0.57855   0.66873 
C          C      -0.00000   0.92145   0.66873 
H          H       0.50124   0.59849   0.87709 
H          H       0.49876   0.90151   0.87709 
H          H       0.49876   0.09849   0.12291 
H          H       0.50124   0.40151   0.12291 
H          H       0.00124   0.09849   0.37709 
H          H       0.99876   0.40151   0.37709 
H          H       0.99876   0.59849   0.62291 
H          H       0.00124   0.90151   0.62291 
H          H       0.34623   0.74782   0.88059 
H          H       0.65377   0.75218   0.88059 
H          H       0.65377   0.24782   0.11941 
H          H       0.34623   0.25218   0.11941 
H          H       0.84623   0.24782   0.38059 
H          H       0.15377   0.25218   0.38059 
H          H       0.15377   0.74782   0.61941 
H          H       0.84623   0.75218   0.61941 
