data_RT-COF-1
_audit_creation_date              0000-00-00
_audit_creation_method            'LanYouShi'
_symmetry_space_group_name_H-M    'P1'
_cell_length_a                    18.4860992
_cell_length_b                    18.4860992
_cell_length_c                    3.4000001
_cell_angle_alpha                 90.0000000
_cell_angle_beta                  90.0000000
_cell_angle_gamma                 120.0000000
loop_
_atom_site_label
_atom_site_type_symbol
_atom_site_fract_x
_atom_site_fract_y
_atom_site_fract_z
_atom_site_U_iso_or_equiv
_atom_site_adp_type
_atom_site_occupancy
        C1          C  0.4209571  0.7009396  0.5427360    0.00000       Uiso       1.00
        C2          C  0.3812839  0.6140778  0.4761036    0.00000       Uiso       1.00
        C1          C  0.2863789  0.6957978  0.4888619    0.00000       Uiso       1.00
        C2          C  0.3744625  0.7432389  0.5480158    0.00000       Uiso       1.00
        C1          C  0.2942778  0.5684439  0.4156290    0.00000       Uiso       1.00
        C2          C  0.2460212  0.6084883  0.4238874    0.00000       Uiso       1.00
        O1          C  0.5057646  0.7358241  0.5950360    0.00000       Uiso       1.00
        O1          C  0.2627349  0.4844162  0.3573226    0.00000       Uiso       1.00
        O1          C  0.2328438  0.7276502  0.4866319    0.00000       Uiso       1.00
        B1          N  0.5667646  0.8128148  0.6987236    0.00000       Uiso       1.00
        B1          N  0.2486614  0.8061028  0.5600599    0.00000       Uiso       1.00
        B1          N  0.1846572  0.4243933  0.2618504    0.00000       Uiso       1.00
        C7          C  0.6858689  0.7892165  0.6266006    0.00000       Uiso       1.00
        C8          C  0.7729045  0.8256850  0.6090912    0.00000       Uiso       1.00
        C7          C  0.2296472  0.9203419  0.6403958    0.00000       Uiso       1.00
        C8          C  0.1794190  0.9571765  0.6357740    0.00000       Uiso       1.00
        C7          C  0.0727405  0.2918580  0.1329947    0.00000       Uiso       1.00
        C8          C  0.0356631  0.2048763  0.1478092    0.00000       Uiso       1.00
        C7          C  0.2046743  0.3039911  0.3379145    0.00000       Uiso       1.00
        C8          C  0.1661914  0.2172214  0.3662221    0.00000       Uiso       1.00
        C7          C  0.1085040  0.7871747  0.4608494    0.00000       Uiso       1.00
        C8          C  0.0590076  0.8249966  0.4499180    0.00000       Uiso       1.00
        C7          C  0.7004540  0.9218218  0.8345904    0.00000       Uiso       1.00
        C8          C  0.7872432  0.9567982  0.8286630    0.00000       Uiso       1.00
        H1          H  0.6504162  0.7272595  0.5571924    0.00000       Uiso       1.00
        H2          H  0.7968188  0.7891449  0.5192671    0.00000       Uiso       1.00
        H1          H  0.2914766  0.9568539  0.7114463    0.00000       Uiso       1.00
        H1          H  0.0372259  0.3173308  0.0461692    0.00000       Uiso       1.00
        H1          H  0.2669280  0.3384853  0.4034710    0.00000       Uiso       1.00
        H2          H  0.2021190  0.1931190  0.4620548    0.00000       Uiso       1.00
        H1          H  0.0808098  0.7248631  0.3974961    0.00000       Uiso       1.00
        H1          H  0.6762186  0.9584886  0.9202939    0.00000       Uiso       1.00
        H2          H  0.2066115  0.0188713  0.7105511    0.00000       Uiso       1.00
        H2          H  0.9750153  0.1707210  0.0585914    0.00000       Uiso       1.00
        H2          H  0.9975318  0.7892795  0.3730985    0.00000       Uiso       1.00
        H2          H  0.8221113  0.0170578  0.9223766    0.00000       Uiso       1.00
        C1          C  0.0448897  0.9504331  0.5120093    0.00000       Uiso       1.00
        C2          C  0.0393247  0.0789104  0.3730521    0.00000       Uiso       1.00
        C3          C  0.9127272  0.9513977  0.6113554    0.00000       Uiso       1.00
        C4          C  0.1948327  0.8349887  0.5514351    0.00000       Uiso       1.00
        C5          C  0.1569251  0.3421558  0.2412578    0.00000       Uiso       1.00
        C6          C  0.6487504  0.8382725  0.7203967    0.00000       Uiso       1.00
        C7          C  0.0935598  0.9109485  0.5337715    0.00000       Uiso       1.00
        C8          C  0.0799559  0.1655176  0.2866265    0.00000       Uiso       1.00
        C9          C  0.8257821  0.9114632  0.6921676    0.00000       Uiso       1.00
       C10          C  0.0812829  0.0329891  0.3681044    0.00000       Uiso       1.00
       C11          C  0.9549185  0.0356013  0.4885181    0.00000       Uiso       1.00
       C12          C  0.9602988  0.9107740  0.6328102    0.00000       Uiso       1.00
       H13          H  0.9332664  0.8516678  0.7440612    0.00000       Uiso       1.00
       H13          H  0.1401107  0.0604321  0.2542813    0.00000       Uiso       1.00
       H13          H  0.9229479  0.0668711  0.4824629    0.00000       Uiso       1.00
