data_crystal

_cell_length_a    27.33350
_cell_length_b    27.33460
_cell_length_c    6.92980
_cell_angle_alpha 90.00000
_cell_angle_beta  90.00000
_cell_angle_gamma 120.00000

_space_group_name_Hall 'P 1'
_space_group_name_H-M_alt  'P 1'

loop_
_symmetry_equiv_pos_as_xyz
'x,y,z'

loop_
_atom_site_label
_atom_site_type_symbol
_atom_site_fract_x
_atom_site_fract_y
_atom_site_fract_z
C    C    0.280040    0.607860    0.250000
C    C    0.433520    0.103730    0.250000
C    C    0.304270    0.573310    0.250000
C    C    0.293000    0.708810    0.250000
C    C    0.362960    0.597030    0.250000
C    C    0.298000    0.956960    0.250000
C    C    0.397640    0.656070    0.250000
C    C    0.239420    0.700320    0.250000
C    C    0.373220    0.690570    0.250000
C    C    0.226960    0.748810    0.250000
C    C    0.314050    0.667370    0.250000
C    C    0.170410    0.737030    0.250000
C    C    0.456340    0.679790    0.250000
C    C    0.155880    0.779840    0.250000
C    C    0.480570    0.645230    0.250000
C    C    0.200650    0.836390    0.250000
C    C    0.446550    0.585730    0.250000
C    C    0.257990    0.850920    0.250000
C    C    0.387380    0.562530    0.250000
C    C    0.269770    0.806160    0.250000
C    C    0.467600    0.544280    0.250000
C    C    0.191190    0.643810    0.250000
C    C    0.521180    0.552770    0.250000
N    N    0.151690    0.599070    0.250000
C    C    0.533620    0.504260    0.250000
C    C    0.306490    0.911870    0.250000
C    C    0.590160    0.516040    0.250000
C    C    0.362990    0.920140    0.250000
N    N    0.407730    0.925410    0.250000
C    C    0.559920    0.416670    0.250000
C    C    0.094940    0.767390    0.250000
C    C    0.502580    0.402150    0.250000
C    C    0.086660    0.815610    0.250000
C    C    0.490800    0.446920    0.250000
N    N    0.081370    0.855080    0.250000
C    C    0.569410    0.609280    0.250000
H    H    0.234880    0.586240    0.250000
C    C    0.665630    0.485660    0.250000
H    H    0.276960    0.527820    0.250000
C    C    0.673900    0.437430    0.250000
H    H    0.400780    0.736000    0.250000
C    C    0.454080    0.341190    0.250000
H    H    0.483640    0.725280    0.250000
C    C    0.397570    0.333330    0.250000
H    H    0.525720    0.666670    0.250000
N    N    0.352820    0.327650    0.250000
H    H    0.359820    0.517100    0.250000
N    N    0.679190    0.397960    0.250000
H    H    0.433210    0.501660    0.250000
N    N    0.608890    0.654030    0.250000
H    H    0.622620    0.559410    0.250000
C    C    0.710720    0.539240    0.250000
H    H    0.570820    0.384200    0.250000
C    C    0.462570    0.296100    0.250000
H    H    0.447430    0.436030    0.250000
C    C    0.773210    0.560280    0.250000
H    H    0.702470    0.573620    0.250000
C    C    0.809190    0.619440    0.250000
H    H    0.505190    0.304340    0.250000
C    C    0.868100    0.643860    0.250000
H    H    0.791320    0.647010    0.250000
C    C    0.892460    0.609170    0.250000
H    H    0.875640    0.523160    0.250000
C    C    0.857480    0.550480    0.250000
H    H    0.775150    0.481090    0.250000
C    C    0.798690    0.526250    0.250000
H    H    0.969240    0.606020    0.250000
C    C    0.951380    0.633590    0.250000
H    H    0.985410    0.771940    0.250000
C    C    0.987350    0.692760    0.250000
H    H    0.884910    0.729870    0.250000
C    C    0.961870    0.726790    0.250000
H    H    0.058090    0.679420    0.250000
C    C    0.903080    0.702560    0.250000
H    H    0.489740    0.215490    0.250000
C    C    0.049850    0.713810    0.250000
H    H    0.281570    0.131170    0.250000
C    C    0.421120    0.233600    0.250000
H    H    0.339990    0.231650    0.250000
C    C    0.444310    0.197630    0.250000
H    H    0.270830    0.037570    0.250000
C    C    0.409810    0.138710    0.250000
H    H    0.420580    0.021400    0.250000
C    C    0.350760    0.114350    0.250000
H    H    0.479000    0.121900    0.250000
C    C    0.327050    0.149330    0.250000
H    H    0.327390    0.751440    0.250000
C    C    0.361610    0.208120    0.250000
H    H    0.255370    0.948720    0.250000
C    C    0.316260    0.055440    0.250000
H    H    0.137950    0.693660    0.250000
C    C    0.339450    0.019460    0.250000
C    C    0.280040    0.607860    0.750000
C    C    0.433520    0.103730    0.750000
C    C    0.304270    0.573310    0.750000
C    C    0.293000    0.708810    0.750000
C    C    0.362960    0.597030    0.750000
C    C    0.298000    0.956960    0.750000
C    C    0.397640    0.656070    0.750000
C    C    0.239420    0.700320    0.750000
C    C    0.373220    0.690570    0.750000
C    C    0.226960    0.748810    0.750000
C    C    0.314050    0.667370    0.750000
C    C    0.170410    0.737030    0.750000
C    C    0.456340    0.679790    0.750000
C    C    0.155880    0.779840    0.750000
C    C    0.480570    0.645230    0.750000
C    C    0.200650    0.836390    0.750000
C    C    0.446550    0.585730    0.750000
C    C    0.257990    0.850920    0.750000
C    C    0.387380    0.562530    0.750000
C    C    0.269770    0.806160    0.750000
C    C    0.467600    0.544280    0.750000
C    C    0.191190    0.643810    0.750000
C    C    0.521180    0.552770    0.750000
N    N    0.151690    0.599070    0.750000
C    C    0.533620    0.504260    0.750000
C    C    0.306490    0.911870    0.750000
C    C    0.590160    0.516040    0.750000
C    C    0.362990    0.920140    0.750000
C    C    0.604680    0.473220    0.750000
N    N    0.407730    0.925410    0.750000
C    C    0.559920    0.416670    0.750000
C    C    0.094940    0.767390    0.750000
C    C    0.502580    0.402150    0.750000
C    C    0.086660    0.815610    0.750000
C    C    0.490800    0.446920    0.750000
N    N    0.081370    0.855080    0.750000
C    C    0.569410    0.609280    0.750000
H    H    0.234880    0.586240    0.750000
C    C    0.665630    0.485660    0.750000
H    H    0.276960    0.527820    0.750000
C    C    0.673900    0.437430    0.750000
H    H    0.400780    0.736000    0.750000
C    C    0.454080    0.341190    0.750000
H    H    0.483640    0.725280    0.750000
C    C    0.397570    0.333330    0.750000
H    H    0.525720    0.666670    0.750000
N    N    0.352820    0.327650    0.750000
H    H    0.359820    0.517100    0.750000
N    N    0.679190    0.397960    0.750000
H    H    0.433210    0.501660    0.750000
N    N    0.608890    0.654030    0.750000
H    H    0.622620    0.559410    0.750000
C    C    0.710720    0.539240    0.750000
H    H    0.570820    0.384200    0.750000
C    C    0.462570    0.296100    0.750000
H    H    0.447430    0.436030    0.750000
C    C    0.773210    0.560280    0.750000
H    H    0.702470    0.573620    0.750000
C    C    0.809190    0.619440    0.750000
H    H    0.505190    0.304340    0.750000
C    C    0.868100    0.643860    0.750000
H    H    0.791320    0.647010    0.750000
C    C    0.892460    0.609170    0.750000
H    H    0.875640    0.523160    0.750000
C    C    0.857480    0.550480    0.750000
H    H    0.775150    0.481090    0.750000
C    C    0.798690    0.526250    0.750000
H    H    0.969240    0.606020    0.750000
C    C    0.951380    0.633590    0.750000
H    H    0.985410    0.771940    0.750000
C    C    0.987350    0.692760    0.750000
H    H    0.884910    0.729870    0.750000
C    C    0.961870    0.726790    0.750000
H    H    0.058090    0.679420    0.750000
C    C    0.903080    0.702560    0.750000
H    H    0.489740    0.215490    0.750000
C    C    0.049850    0.713810    0.750000
H    H    0.281570    0.131170    0.750000
C    C    0.421120    0.233600    0.750000
H    H    0.339990    0.231650    0.750000
C    C    0.444310    0.197630    0.750000
H    H    0.270830    0.037570    0.750000
C    C    0.409810    0.138710    0.750000
H    H    0.420580    0.021400    0.750000
C    C    0.350760    0.114350    0.750000
H    H    0.479000    0.121900    0.750000
C    C    0.327050    0.149330    0.750000
H    H    0.327390    0.751440    0.750000
C    C    0.361610    0.208120    0.750000
H    H    0.255370    0.948720    0.750000
C    C    0.316260    0.055440    0.750000
H    H    0.137950    0.693660    0.750000
C    C    0.339450    0.019460    0.750000
C    C    0.400180    0.043481    0.250000
C    C    0.412224    0.050873    0.755331
