data_crystal

_cell_length_a    48.62280
_cell_length_b    45.08060
_cell_length_c    7.73020
_cell_angle_alpha 90.00000
_cell_angle_beta  85.03920
_cell_angle_gamma 90.00000

_symmetry_space_group_name_Hall 'P 1'
_symmetry_space_group_name_H-M  'P 1'

loop_
_symmetry_equiv_pos_as_xyz
 'x,y,z'

loop_
_atom_site_label
_atom_site_type_symbol
_atom_site_fract_x
_atom_site_fract_y
_atom_site_fract_z
C          C       0.02819   0.97276   0.29513
C          C       0.97181   0.97276   0.20487
C          C       0.97181   0.02724   0.20487
C          C       0.02819   0.02724   0.29513
C          C       0.01353   0.94608   0.26971
C          C       0.98647   0.94608   0.23029
C          C       0.98647   0.05392   0.23029
C          C       0.01353   0.05392   0.26971
C          C       0.05622   0.97286   0.33731
C          C       0.94378   0.97286   0.16269
C          C       0.94378   0.02714   0.16269
C          C       0.05622   0.02714   0.33731
C          C       0.07408   0.94596   0.34152
C          C       0.92592   0.94596   0.15848
C          C       0.92592   0.05404   0.15848
C          C       0.07408   0.05404   0.34152
C          C       0.10100   0.94626   0.25166
C          C       0.89900   0.94626   0.24835
C          C       0.89900   0.05374   0.24835
C          C       0.10100   0.05374   0.25166
C          C       0.11886   0.92221   0.25788
C          C       0.88114   0.92221   0.24212
C          C       0.88114   0.07779   0.24212
C          C       0.11886   0.07779   0.25788
C          C       0.11025   0.89673   0.35108
C          C       0.88975   0.89673   0.14893
C          C       0.88975   0.10327   0.14893
C          C       0.11025   0.10327   0.35108
C          C       0.08335   0.89623   0.43919
C          C       0.91665   0.89623   0.06082
C          C       0.91665   0.10377   0.06082
C          C       0.08335   0.10377   0.43919
C          C       0.06581   0.92070   0.43685
C          C       0.93419   0.92070   0.06315
C          C       0.93419   0.07930   0.06315
C          C       0.06581   0.07930   0.43685
C          C       0.26529   0.78552   0.24693
C          C       0.73471   0.78552   0.25307
C          C       0.73471   0.21448   0.25307
C          C       0.26529   0.21448   0.24693
C          C       0.28458   0.76146   0.23543
C          C       0.71542   0.76146   0.26457
C          C       0.71542   0.23854   0.26457
C          C       0.28458   0.23854   0.23543
C          C       0.27700   0.73333   0.29174
C          C       0.72300   0.73333   0.20826
C          C       0.72300   0.26667   0.20826
C          C       0.27700   0.26667   0.29174
C          C       0.24875   0.72926   0.36876
C          C       0.75125   0.72926   0.13124
C          C       0.75125   0.27074   0.13124
C          C       0.24875   0.27074   0.36876
C          C       0.22934   0.75347   0.37997
C          C       0.77066   0.75347   0.12003
C          C       0.77066   0.24653   0.12003
C          C       0.22934   0.24653   0.37997
C          C       0.23778   0.78226   0.31533
C          C       0.76222   0.78226   0.18468
C          C       0.76222   0.21774   0.18468
C          C       0.23778   0.21774   0.31533
C          C       0.21612   0.80563   0.32240
C          C       0.78388   0.80563   0.17760
C          C       0.78388   0.19437   0.17760
C          C       0.21612   0.19437   0.32240
C          C       0.29526   0.70691   0.27438
C          C       0.70474   0.70691   0.22562
C          C       0.70474   0.29309   0.22562
C          C       0.29526   0.29309   0.27438
C          C       0.18974   0.80002   0.26704
C          C       0.81026   0.80002   0.23296
C          C       0.81026   0.19998   0.23296
C          C       0.18974   0.19998   0.26704
C          C       0.16950   0.82210   0.27127
C          C       0.83050   0.82210   0.22873
C          C       0.83050   0.17790   0.22873
C          C       0.16950   0.17790   0.27127
C          C       0.17503   0.85062   0.33122
C          C       0.82497   0.85062   0.16879
C          C       0.82497   0.14938   0.16879
C          C       0.17503   0.14938   0.33122
C          C       0.20144   0.85621   0.38625
C          C       0.79856   0.85621   0.11376
C          C       0.79856   0.14379   0.11376
C          C       0.20144   0.14379   0.38625
C          C       0.22140   0.83394   0.38465
C          C       0.77860   0.83394   0.11535
C          C       0.77860   0.16606   0.11535
C          C       0.22140   0.16606   0.38465
C          C       0.32238   0.70775   0.32453
C          C       0.67762   0.70775   0.17547
C          C       0.67762   0.29225   0.17547
C          C       0.32238   0.29225   0.32453
C          C       0.33986   0.68323   0.30552
C          C       0.66014   0.68323   0.19449
C          C       0.66014   0.31677   0.19449
C          C       0.33986   0.31677   0.30552
C          C       0.33053   0.65667   0.23747
C          C       0.66947   0.65667   0.26253
C          C       0.66947   0.34333   0.26253
C          C       0.33053   0.34333   0.23747
C          C       0.30291   0.65535   0.19365
C          C       0.69709   0.65535   0.30635
C          C       0.69709   0.34465   0.30635
C          C       0.30291   0.34465   0.19365
C          C       0.28569   0.68012   0.20990
C          C       0.71431   0.68012   0.29011
C          C       0.71431   0.31988   0.29011
C          C       0.28569   0.31988   0.20990
N          N       0.15595   0.87419   0.32875
N          N       0.84405   0.87419   0.17125
N          N       0.84405   0.12581   0.17125
N          N       0.15595   0.12581   0.32875
C          C       0.12905   0.87122   0.35887
C          C       0.87095   0.87122   0.14113
C          C       0.87095   0.12878   0.14113
C          C       0.12905   0.12878   0.35887
C          C       0.44347   0.52712   0.16738
C          C       0.55653   0.52712   0.33262
C          C       0.55653   0.47288   0.33262
C          C       0.44347   0.47288   0.16738
C          C       0.47165   0.52723   0.20716
C          C       0.52835   0.52723   0.29284
C          C       0.52835   0.47277   0.29284
C          C       0.47165   0.47277   0.20716
C          C       0.48641   0.55389   0.23150
C          C       0.51359   0.55389   0.26850
C          C       0.51359   0.44611   0.26850
C          C       0.48641   0.44611   0.23150
C          C       0.42577   0.44584   0.16382
C          C       0.57423   0.44584   0.33618
C          C       0.57423   0.55416   0.33618
C          C       0.42577   0.55416   0.16382
C          C       0.43426   0.42066   0.06831
C          C       0.56574   0.42066   0.43169
C          C       0.56574   0.57934   0.43169
C          C       0.43426   0.57934   0.06831
C          C       0.41751   0.39554   0.07221
C          C       0.58249   0.39554   0.42780
C          C       0.58249   0.60446   0.42780
C          C       0.41751   0.60446   0.07221
C          C       0.39111   0.39520   0.16687
C          C       0.60889   0.39520   0.33313
C          C       0.60889   0.60480   0.33313
C          C       0.39111   0.60480   0.16687
C          C       0.38198   0.42083   0.25700
C          C       0.61802   0.42083   0.24300
C          C       0.61802   0.57917   0.24300
C          C       0.38198   0.57917   0.25700
C          C       0.39910   0.44560   0.25679
C          C       0.60090   0.44560   0.24321
C          C       0.60090   0.55440   0.24321
C          C       0.39910   0.55440   0.25679
C          C       0.37387   0.36829   0.17342
C          C       0.62613   0.36829   0.32659
C          C       0.62613   0.63171   0.32659
C          C       0.37387   0.63171   0.17342
N          N       0.65272   0.63106   0.27818
N          N       0.34728   0.63106   0.22182
N          N       0.34728   0.36894   0.22182
N          N       0.65272   0.36894   0.27818
N          N       0.79606   0.25288   0.04514
N          N       0.20394   0.25288   0.45486
N          N       0.20394   0.74712   0.45486
N          N       0.79606   0.74712   0.04514
S          S       0.79682   0.29076   0.48365
S          S       0.20318   0.29076   0.01635
S          S       0.20318   0.70924   0.01635
S          S       0.79682   0.70924   0.48365
N          N       0.76132   0.29612   0.06487
N          N       0.23868   0.29612   0.43514
N          N       0.23868   0.70388   0.43514
N          N       0.76132   0.70388   0.06487
H          H       0.10805   0.96530   0.17449
H          H       0.89195   0.96530   0.32551
H          H       0.89195   0.03470   0.32551
H          H       0.10805   0.03470   0.17449
H          H       0.13950   0.92310   0.18746
H          H       0.86050   0.92310   0.31254
H          H       0.86050   0.07690   0.31254
H          H       0.13950   0.07690   0.18746
H          H       0.07632   0.87698   0.01438
H          H       0.92368   0.87698   0.48562
H          H       0.92368   0.12302   0.48562
H          H       0.07632   0.12302   0.01438
H          H       0.04570   0.92004   0.01292
H          H       0.95430   0.92004   0.48708
H          H       0.95430   0.07996   0.48708
H          H       0.04570   0.07996   0.01292
Cl         Cl      0.27717   0.81969   0.16168
Cl         Cl      0.72283   0.81969   0.33833
Cl         Cl      0.72283   0.18031   0.33833
Cl         Cl      0.27717   0.18031   0.16168
Cl         Cl      0.31851   0.76827   0.13775
Cl         Cl      0.68149   0.76827   0.36225
Cl         Cl      0.68149   0.23173   0.36225
Cl         Cl      0.31851   0.23173   0.13775
H          H       0.18491   0.77847   0.21688
H          H       0.81509   0.77847   0.28313
H          H       0.81509   0.22153   0.28313
H          H       0.18491   0.22153   0.21688
H          H       0.14960   0.81738   0.22325
H          H       0.85040   0.81738   0.27675
H          H       0.85040   0.18262   0.27675
H          H       0.14960   0.18262   0.22325
H          H       0.20624   0.87801   0.43305
H          H       0.79376   0.87801   0.06695
H          H       0.79376   0.12199   0.06695
H          H       0.20624   0.12199   0.43305
H          H       0.24115   0.83883   0.43348
H          H       0.75885   0.83883   0.06653
H          H       0.75885   0.16117   0.06653
H          H       0.24115   0.16117   0.43348
H          H       0.33007   0.72758   0.38137
H          H       0.66993   0.72758   0.11863
H          H       0.66993   0.27242   0.11863
H          H       0.33007   0.27242   0.38137
H          H       0.36064   0.68461   0.34714
H          H       0.63936   0.68461   0.15286
H          H       0.63936   0.31539   0.15286
H          H       0.36064   0.31539   0.34714
H          H       0.29519   0.63496   0.14267
H          H       0.70481   0.63496   0.35733
H          H       0.70481   0.36504   0.35733
H          H       0.29519   0.36504   0.14267
H          H       0.26480   0.67853   0.16997
H          H       0.73520   0.67853   0.33003
H          H       0.73520   0.32147   0.33003
H          H       0.26480   0.32147   0.16997
H          H       0.11954   0.84969   0.39750
H          H       0.88046   0.84969   0.10250
H          H       0.88046   0.15031   0.10250
H          H       0.11954   0.15031   0.39750
H          H       0.42491   0.37621   0.49885
H          H       0.57509   0.37621   0.00115
H          H       0.57509   0.62379   0.00115
H          H       0.42491   0.62379   0.49885
H          H       0.36167   0.42115   0.33176
H          H       0.63833   0.42115   0.16824
H          H       0.63833   0.57885   0.16824
H          H       0.36167   0.57885   0.33176
H          H       0.39183   0.46466   0.33324
H          H       0.60817   0.46466   0.16676
H          H       0.60817   0.53534   0.16676
H          H       0.39183   0.53534   0.33324
H          H       0.38445   0.34737   0.13278
H          H       0.61555   0.34737   0.36723
H          H       0.61555   0.65263   0.36723
H          H       0.38445   0.65263   0.13278
H          H       0.52346   0.57506   0.27920
H          H       0.47654   0.57506   0.22080
H          H       0.47654   0.42494   0.22080
H          H       0.52346   0.42494   0.27920
H          H       0.02338   0.92494   0.28171
H          H       0.97662   0.92494   0.21830
H          H       0.97662   0.07506   0.21830
H          H       0.02338   0.07506   0.28171
H          H       0.45409   0.42046   0.48910
H          H       0.54591   0.42046   0.01090
H          H       0.54591   0.57954   0.01090
H          H       0.45409   0.57954   0.48910
C          C       0.01400   0.00000   0.27390
C          C       0.98600   0.00000   0.22610
C          C       0.06899   0.00000   0.36306
C          C       0.93101   0.00000   0.13694
H          H       0.09007   0.00000   0.40112
H          H       0.90993   0.00000   0.09889
C          C       0.48592   0.50000   0.22730
C          C       0.51408   0.50000   0.27270
C          C       0.43055   0.50000   0.14373
C          C       0.56945   0.50000   0.35627
H          H       0.40931   0.50000   0.10837
H          H       0.59069   0.50000   0.39164
C          C       0.02819   0.97276   0.79513
C          C       0.97181   0.97276   0.70487
C          C       0.97181   0.02724   0.70487
C          C       0.02819   0.02724   0.79513
C          C       0.01353   0.94608   0.76972
C          C       0.98647   0.94608   0.73029
C          C       0.98647   0.05392   0.73029
C          C       0.01353   0.05392   0.76972
C          C       0.05622   0.97286   0.83731
C          C       0.94378   0.97286   0.66269
C          C       0.94378   0.02714   0.66269
C          C       0.05622   0.02714   0.83731
C          C       0.07408   0.94596   0.84152
C          C       0.92592   0.94596   0.65848
C          C       0.92592   0.05404   0.65848
C          C       0.07408   0.05404   0.84152
C          C       0.10100   0.94626   0.75166
C          C       0.89900   0.94626   0.74835
C          C       0.89900   0.05374   0.74835
C          C       0.10100   0.05374   0.75166
C          C       0.11886   0.92221   0.75788
C          C       0.88114   0.92221   0.74213
C          C       0.88114   0.07779   0.74213
C          C       0.11886   0.07779   0.75788
C          C       0.11025   0.89673   0.85108
C          C       0.88975   0.89673   0.64892
C          C       0.88975   0.10327   0.64892
C          C       0.11025   0.10327   0.85108
C          C       0.08335   0.89623   0.93919
C          C       0.91665   0.89623   0.56082
C          C       0.91665   0.10377   0.56082
C          C       0.08335   0.10377   0.93919
C          C       0.06581   0.92070   0.93686
C          C       0.93419   0.92070   0.56315
C          C       0.93419   0.07930   0.56315
C          C       0.06581   0.07930   0.93686
C          C       0.26529   0.78552   0.74693
C          C       0.73471   0.78552   0.75307
C          C       0.73471   0.21448   0.75307
C          C       0.26529   0.21448   0.74693
C          C       0.28458   0.76146   0.73543
C          C       0.71542   0.76146   0.76457
C          C       0.71542   0.23854   0.76457
C          C       0.28458   0.23854   0.73543
C          C       0.27700   0.73333   0.79174
C          C       0.72300   0.73333   0.70826
C          C       0.72300   0.26667   0.70826
C          C       0.27700   0.26667   0.79174
C          C       0.24875   0.72926   0.86876
C          C       0.75125   0.72926   0.63124
C          C       0.75125   0.27074   0.63124
C          C       0.24875   0.27074   0.86876
C          C       0.22934   0.75347   0.87997
C          C       0.77066   0.75347   0.62003
C          C       0.77066   0.24653   0.62003
C          C       0.22934   0.24653   0.87997
C          C       0.23778   0.78226   0.81533
C          C       0.76222   0.78226   0.68468
C          C       0.76222   0.21774   0.68468
C          C       0.23778   0.21774   0.81533
C          C       0.21612   0.80563   0.82240
C          C       0.78388   0.80563   0.67760
C          C       0.78388   0.19437   0.67760
C          C       0.21612   0.19437   0.82240
C          C       0.29526   0.70691   0.77439
C          C       0.70474   0.70691   0.72562
C          C       0.70474   0.29309   0.72562
C          C       0.29526   0.29309   0.77439
C          C       0.18974   0.80002   0.76704
C          C       0.81026   0.80002   0.73296
C          C       0.81026   0.19998   0.73296
C          C       0.18974   0.19998   0.76704
C          C       0.16950   0.82210   0.77128
C          C       0.83050   0.82210   0.72873
C          C       0.83050   0.17790   0.72873
C          C       0.16950   0.17790   0.77128
C          C       0.17503   0.85062   0.83122
C          C       0.82497   0.85062   0.66879
C          C       0.82497   0.14938   0.66879
C          C       0.17503   0.14938   0.83122
C          C       0.20144   0.85621   0.88625
C          C       0.79856   0.85621   0.61376
C          C       0.79856   0.14379   0.61376
C          C       0.20144   0.14379   0.88625
C          C       0.22140   0.83394   0.88465
C          C       0.77860   0.83394   0.61535
C          C       0.77860   0.16606   0.61535
C          C       0.22140   0.16606   0.88465
C          C       0.32238   0.70775   0.82453
C          C       0.67762   0.70775   0.67547
C          C       0.67762   0.29225   0.67547
C          C       0.32238   0.29225   0.82453
C          C       0.33986   0.68323   0.80551
C          C       0.66014   0.68323   0.69449
C          C       0.66014   0.31677   0.69449
C          C       0.33986   0.31677   0.80551
C          C       0.33053   0.65667   0.73747
C          C       0.66947   0.65667   0.76253
C          C       0.66947   0.34333   0.76253
C          C       0.33053   0.34333   0.73747
C          C       0.30291   0.65535   0.69365
C          C       0.69709   0.65535   0.80635
C          C       0.69709   0.34465   0.80635
C          C       0.30291   0.34465   0.69365
C          C       0.28569   0.68012   0.70990
C          C       0.71431   0.68012   0.79011
C          C       0.71431   0.31988   0.79011
C          C       0.28569   0.31988   0.70990
N          N       0.15595   0.87419   0.82875
N          N       0.84405   0.87419   0.67125
N          N       0.84405   0.12581   0.67125
N          N       0.15595   0.12581   0.82875
C          C       0.12905   0.87122   0.85887
C          C       0.87095   0.87122   0.64113
C          C       0.87095   0.12878   0.64113
C          C       0.12905   0.12878   0.85887
C          C       0.44347   0.52712   0.66738
C          C       0.55653   0.52712   0.83262
C          C       0.55653   0.47288   0.83262
C          C       0.44347   0.47288   0.66738
C          C       0.47165   0.52723   0.70717
C          C       0.52835   0.52723   0.79284
C          C       0.52835   0.47277   0.79284
C          C       0.47165   0.47277   0.70717
C          C       0.48641   0.55389   0.73150
C          C       0.51359   0.55389   0.76851
C          C       0.51359   0.44611   0.76851
C          C       0.48641   0.44611   0.73150
C          C       0.42577   0.44584   0.66382
C          C       0.57423   0.44584   0.83618
C          C       0.57423   0.55416   0.83618
C          C       0.42577   0.55416   0.66382
C          C       0.43426   0.42066   0.56831
C          C       0.56574   0.42066   0.93169
C          C       0.56574   0.57934   0.93169
C          C       0.43426   0.57934   0.56831
C          C       0.41751   0.39554   0.57221
C          C       0.58249   0.39554   0.92780
C          C       0.58249   0.60446   0.92780
C          C       0.41751   0.60446   0.57221
C          C       0.39111   0.39520   0.66687
C          C       0.60889   0.39520   0.83313
C          C       0.60889   0.60480   0.83313
C          C       0.39111   0.60480   0.66687
C          C       0.38198   0.42083   0.75700
C          C       0.61802   0.42083   0.74300
C          C       0.61802   0.57917   0.74300
C          C       0.38198   0.57917   0.75700
C          C       0.39910   0.44560   0.75680
C          C       0.60090   0.44560   0.74321
C          C       0.60090   0.55440   0.74321
C          C       0.39910   0.55440   0.75680
C          C       0.37387   0.36829   0.67342
C          C       0.62613   0.36829   0.82659
C          C       0.62613   0.63171   0.82659
C          C       0.37387   0.63171   0.67342
N          N       0.65272   0.63106   0.77818
N          N       0.34728   0.63106   0.72182
N          N       0.34728   0.36894   0.72182
N          N       0.65272   0.36894   0.77818
N          N       0.79606   0.25288   0.54514
N          N       0.20394   0.25288   0.95486
N          N       0.20394   0.74712   0.95486
N          N       0.79606   0.74712   0.54514
S          S       0.79682   0.29076   0.98365
S          S       0.20318   0.29076   0.51635
S          S       0.20318   0.70924   0.51635
S          S       0.79682   0.70924   0.98365
N          N       0.76132   0.29612   0.56487
N          N       0.23868   0.29612   0.93514
N          N       0.23868   0.70388   0.93514
N          N       0.76132   0.70388   0.56487
H          H       0.10805   0.96530   0.67449
H          H       0.89195   0.96530   0.82551
H          H       0.89195   0.03470   0.82551
H          H       0.10805   0.03470   0.67449
H          H       0.13950   0.92310   0.68746
H          H       0.86050   0.92310   0.81254
H          H       0.86050   0.07690   0.81254
H          H       0.13950   0.07690   0.68746
H          H       0.07632   0.87698   0.51438
H          H       0.92368   0.87698   0.98562
H          H       0.92368   0.12302   0.98562
H          H       0.07632   0.12302   0.51438
H          H       0.04570   0.92004   0.51292
H          H       0.95430   0.92004   0.98708
H          H       0.95430   0.07996   0.98708
H          H       0.04570   0.07996   0.51292
Cl         Cl      0.27717   0.81969   0.66168
Cl         Cl      0.72283   0.81969   0.83833
Cl         Cl      0.72283   0.18031   0.83833
Cl         Cl      0.27717   0.18031   0.66168
Cl         Cl      0.31851   0.76827   0.63776
Cl         Cl      0.68149   0.76827   0.86225
Cl         Cl      0.68149   0.23173   0.86225
Cl         Cl      0.31851   0.23173   0.63776
H          H       0.18491   0.77847   0.71688
H          H       0.81509   0.77847   0.78313
H          H       0.81509   0.22153   0.78313
H          H       0.18491   0.22153   0.71688
H          H       0.14960   0.81738   0.72325
H          H       0.85040   0.81738   0.77675
H          H       0.85040   0.18262   0.77675
H          H       0.14960   0.18262   0.72325
H          H       0.20624   0.87801   0.93305
H          H       0.79376   0.87801   0.56696
H          H       0.79376   0.12199   0.56696
H          H       0.20624   0.12199   0.93305
H          H       0.24115   0.83883   0.93348
H          H       0.75885   0.83883   0.56653
H          H       0.75885   0.16117   0.56653
H          H       0.24115   0.16117   0.93348
H          H       0.33007   0.72758   0.88137
H          H       0.66993   0.72758   0.61863
H          H       0.66993   0.27242   0.61863
H          H       0.33007   0.27242   0.88137
H          H       0.36064   0.68461   0.84714
H          H       0.63936   0.68461   0.65286
H          H       0.63936   0.31539   0.65286
H          H       0.36064   0.31539   0.84714
H          H       0.29519   0.63496   0.64267
H          H       0.70481   0.63496   0.85733
H          H       0.70481   0.36504   0.85733
H          H       0.29519   0.36504   0.64267
H          H       0.26480   0.67853   0.66997
H          H       0.73520   0.67853   0.83003
H          H       0.73520   0.32147   0.83003
H          H       0.26480   0.32147   0.66997
H          H       0.11954   0.84969   0.89751
H          H       0.88046   0.84969   0.60250
H          H       0.88046   0.15031   0.60250
H          H       0.11954   0.15031   0.89751
H          H       0.42491   0.37621   0.99885
H          H       0.57509   0.37621   0.50115
H          H       0.57509   0.62379   0.50115
H          H       0.42491   0.62379   0.99885
H          H       0.36167   0.42115   0.83176
H          H       0.63833   0.42115   0.66824
H          H       0.63833   0.57885   0.66824
H          H       0.36167   0.57885   0.83176
H          H       0.39183   0.46466   0.83324
H          H       0.60817   0.46466   0.66677
H          H       0.60817   0.53534   0.66677
H          H       0.39183   0.53534   0.83324
H          H       0.38445   0.34737   0.63278
H          H       0.61555   0.34737   0.86723
H          H       0.61555   0.65263   0.86723
H          H       0.38445   0.65263   0.63278
H          H       0.52346   0.57506   0.77920
H          H       0.47654   0.57506   0.72080
H          H       0.47654   0.42494   0.72080
H          H       0.52346   0.42494   0.77920
H          H       0.02338   0.92494   0.78171
H          H       0.97662   0.92494   0.71830
H          H       0.97662   0.07506   0.71830
H          H       0.02338   0.07506   0.78171
H          H       0.45409   0.42046   0.98910
H          H       0.54591   0.42046   0.51090
H          H       0.54591   0.57954   0.51090
H          H       0.45409   0.57954   0.98910
C          C       0.01400   0.00000   0.77390
C          C       0.98600   0.00000   0.72610
C          C       0.06899   0.00000   0.86306
C          C       0.93101   0.00000   0.63695
H          H       0.09007   0.00000   0.90112
H          H       0.90993   0.00000   0.59889
C          C       0.48592   0.50000   0.72730
C          C       0.51408   0.50000   0.77270
C          C       0.43055   0.50000   0.64373
C          C       0.56945   0.50000   0.85627
H          H       0.40931   0.50000   0.60837
H          H       0.59069   0.50000   0.89163
