data_crystal

_cell_length_a    95.31620
_cell_length_b    95.31620
_cell_length_c    95.31620
_cell_angle_alpha 90.00000
_cell_angle_beta  90.00000
_cell_angle_gamma 90.00000

_space_group_name_Hall 'P 1'
_space_group_name_H-M_alt  'P 1'

loop_
_symmetry_equiv_pos_as_xyz
 'x,y,z'

loop_
_atom_site_label
_atom_site_type_symbol
_atom_site_fract_x
_atom_site_fract_y
_atom_site_fract_z
C          C       0.27922   0.72869   0.46422
C          C       0.72078   0.27131   0.46422
C          C       0.72078   0.72869   0.53578
C          C       0.27922   0.27131   0.53578
C          C       0.46422   0.27922   0.72869
C          C       0.46422   0.72078   0.27131
C          C       0.53578   0.72078   0.72869
C          C       0.53578   0.27922   0.27131
C          C       0.72869   0.46422   0.27922
C          C       0.27131   0.46422   0.72078
C          C       0.72869   0.53578   0.72078
C          C       0.27131   0.53578   0.27922
C          C       0.72078   0.27131   0.53578
C          C       0.27922   0.72869   0.53578
C          C       0.27922   0.27131   0.46422
C          C       0.72078   0.72869   0.46422
C          C       0.53578   0.72078   0.27131
C          C       0.53578   0.27922   0.72869
C          C       0.46422   0.27922   0.27131
C          C       0.46422   0.72078   0.72869
C          C       0.27131   0.53578   0.72078
C          C       0.72869   0.53578   0.27922
C          C       0.27131   0.46422   0.27922
C          C       0.72869   0.46422   0.72078
C          C       0.27631   0.71483   0.46151
C          C       0.72369   0.28517   0.46151
C          C       0.72369   0.71483   0.53849
C          C       0.27631   0.28517   0.53849
C          C       0.46151   0.27631   0.71483
C          C       0.46151   0.72369   0.28517
C          C       0.53849   0.72369   0.71483
C          C       0.53849   0.27631   0.28517
C          C       0.71483   0.46151   0.27631
C          C       0.28517   0.46151   0.72369
C          C       0.71483   0.53849   0.72369
C          C       0.28517   0.53849   0.27631
C          C       0.72369   0.28517   0.53849
C          C       0.27631   0.71483   0.53849
C          C       0.27631   0.28517   0.46151
C          C       0.72369   0.71483   0.46151
C          C       0.53849   0.72369   0.28517
C          C       0.53849   0.27631   0.71483
C          C       0.46151   0.27631   0.28517
C          C       0.46151   0.72369   0.71483
C          C       0.28517   0.53849   0.72369
C          C       0.71483   0.53849   0.27631
C          C       0.28517   0.46151   0.27631
C          C       0.71483   0.46151   0.72369
C          C       0.28318   0.70793   0.45092
C          C       0.71682   0.29207   0.45092
C          C       0.71682   0.70793   0.54908
C          C       0.28318   0.29207   0.54908
C          C       0.45092   0.28318   0.70793
C          C       0.45092   0.71682   0.29207
C          C       0.54908   0.71682   0.70793
C          C       0.54908   0.28318   0.29207
C          C       0.70793   0.45092   0.28318
C          C       0.29207   0.45092   0.71682
C          C       0.70793   0.54908   0.71682
C          C       0.29207   0.54908   0.28318
C          C       0.71682   0.29207   0.54908
C          C       0.28318   0.70793   0.54908
C          C       0.28318   0.29207   0.45092
C          C       0.71682   0.70793   0.45092
C          C       0.54908   0.71682   0.29207
C          C       0.54908   0.28318   0.70793
C          C       0.45092   0.28318   0.29207
C          C       0.45092   0.71682   0.70793
C          C       0.29207   0.54908   0.71682
C          C       0.70793   0.54908   0.28318
C          C       0.29207   0.45092   0.28318
C          C       0.70793   0.45092   0.71682
C          C       0.29311   0.71471   0.44296
C          C       0.70689   0.28529   0.44296
C          C       0.70689   0.71471   0.55704
C          C       0.29311   0.28529   0.55704
C          C       0.44296   0.29311   0.71471
C          C       0.44296   0.70689   0.28529
C          C       0.55704   0.70689   0.71471
C          C       0.55704   0.29311   0.28529
C          C       0.71471   0.44296   0.29311
C          C       0.28529   0.44296   0.70689
C          C       0.71471   0.55704   0.70689
C          C       0.28529   0.55704   0.29311
C          C       0.70689   0.28529   0.55704
C          C       0.29311   0.71471   0.55704
C          C       0.29311   0.28529   0.44296
C          C       0.70689   0.71471   0.44296
C          C       0.55704   0.70689   0.28529
C          C       0.55704   0.29311   0.71471
C          C       0.44296   0.29311   0.28529
C          C       0.44296   0.70689   0.71471
C          C       0.28529   0.55704   0.70689
C          C       0.71471   0.55704   0.29311
C          C       0.28529   0.44296   0.29311
C          C       0.71471   0.44296   0.70689
C          C       0.29602   0.72866   0.44572
C          C       0.70398   0.27134   0.44572
C          C       0.70398   0.72866   0.55428
C          C       0.29602   0.27134   0.55428
C          C       0.44572   0.29602   0.72866
C          C       0.44572   0.70398   0.27134
C          C       0.55428   0.70398   0.72866
C          C       0.55428   0.29602   0.27134
C          C       0.72866   0.44572   0.29602
C          C       0.27134   0.44572   0.70398
C          C       0.72866   0.55428   0.70398
C          C       0.27134   0.55428   0.29602
C          C       0.70398   0.27134   0.55428
C          C       0.29602   0.72866   0.55428
C          C       0.29602   0.27134   0.44572
C          C       0.70398   0.72866   0.44572
C          C       0.55428   0.70398   0.27134
C          C       0.55428   0.29602   0.72866
C          C       0.44572   0.29602   0.27134
C          C       0.44572   0.70398   0.72866
C          C       0.27134   0.55428   0.70398
C          C       0.72866   0.55428   0.29602
C          C       0.27134   0.44572   0.29602
C          C       0.72866   0.44572   0.70398
C          C       0.28914   0.73555   0.45631
C          C       0.71086   0.26445   0.45631
C          C       0.71086   0.73555   0.54369
C          C       0.28914   0.26445   0.54369
C          C       0.45631   0.28914   0.73555
C          C       0.45631   0.71086   0.26445
C          C       0.54369   0.71086   0.73555
C          C       0.54369   0.28914   0.26445
C          C       0.73555   0.45631   0.28914
C          C       0.26445   0.45631   0.71086
C          C       0.73555   0.54369   0.71086
C          C       0.26445   0.54369   0.28914
C          C       0.71086   0.26445   0.54369
C          C       0.28914   0.73555   0.54369
C          C       0.28914   0.26445   0.45631
C          C       0.71086   0.73555   0.45631
C          C       0.54369   0.71086   0.26445
C          C       0.54369   0.28914   0.73555
C          C       0.45631   0.28914   0.26445
C          C       0.45631   0.71086   0.73555
C          C       0.26445   0.54369   0.71086
C          C       0.73555   0.54369   0.28914
C          C       0.26445   0.45631   0.28914
C          C       0.73555   0.45631   0.71086
N          N       0.29944   0.70726   0.43185
N          N       0.70056   0.29274   0.43185
N          N       0.70056   0.70726   0.56815
N          N       0.29944   0.29274   0.56815
N          N       0.43185   0.29944   0.70726
N          N       0.43185   0.70056   0.29274
N          N       0.56815   0.70056   0.70726
N          N       0.56815   0.29944   0.29274
N          N       0.70726   0.43185   0.29944
N          N       0.29274   0.43185   0.70056
N          N       0.70726   0.56815   0.70056
N          N       0.29274   0.56815   0.29944
N          N       0.70056   0.29274   0.56815
N          N       0.29944   0.70726   0.56815
N          N       0.29944   0.29274   0.43185
N          N       0.70056   0.70726   0.43185
N          N       0.56815   0.70056   0.29274
N          N       0.56815   0.29944   0.70726
N          N       0.43185   0.29944   0.29274
N          N       0.43185   0.70056   0.70726
N          N       0.29274   0.56815   0.70056
N          N       0.70726   0.56815   0.29944
N          N       0.29274   0.43185   0.29944
N          N       0.70726   0.43185   0.70056
C          C       0.31037   0.71089   0.42504
C          C       0.68963   0.28911   0.42504
C          C       0.68963   0.71089   0.57496
C          C       0.31037   0.28911   0.57496
C          C       0.42504   0.31037   0.71089
C          C       0.42504   0.68963   0.28911
C          C       0.57496   0.68963   0.71089
C          C       0.57496   0.31037   0.28911
C          C       0.71089   0.42504   0.31037
C          C       0.28911   0.42504   0.68963
C          C       0.71089   0.57496   0.68963
C          C       0.28911   0.57496   0.31037
C          C       0.68963   0.28911   0.57496
C          C       0.31037   0.71089   0.57496
C          C       0.31037   0.28911   0.42504
C          C       0.68963   0.71089   0.42504
C          C       0.57496   0.68963   0.28911
C          C       0.57496   0.31037   0.71089
C          C       0.42504   0.31037   0.28911
C          C       0.42504   0.68963   0.71089
C          C       0.28911   0.57496   0.68963
C          C       0.71089   0.57496   0.31037
C          C       0.28911   0.42504   0.31037
C          C       0.71089   0.42504   0.68963
C          C       0.31545   0.70248   0.41344
C          C       0.68455   0.29752   0.41344
C          C       0.68455   0.70248   0.58656
C          C       0.31545   0.29752   0.58656
C          C       0.41344   0.31545   0.70248
C          C       0.41344   0.68455   0.29752
C          C       0.58656   0.68455   0.70248
C          C       0.58656   0.31545   0.29752
C          C       0.70248   0.41344   0.31545
C          C       0.29752   0.41344   0.68455
C          C       0.70248   0.58656   0.68455
C          C       0.29752   0.58656   0.31545
C          C       0.68455   0.29752   0.58656
C          C       0.31545   0.70248   0.58656
C          C       0.31545   0.29752   0.41344
C          C       0.68455   0.70248   0.41344
C          C       0.58656   0.68455   0.29752
C          C       0.58656   0.31545   0.70248
C          C       0.41344   0.31545   0.29752
C          C       0.41344   0.68455   0.70248
C          C       0.29752   0.58656   0.68455
C          C       0.70248   0.58656   0.31545
C          C       0.29752   0.41344   0.31545
C          C       0.70248   0.41344   0.68455
C          C       0.32720   0.70673   0.40620
C          C       0.67280   0.29327   0.40620
C          C       0.67280   0.70673   0.59380
C          C       0.32720   0.29327   0.59380
C          C       0.40620   0.32720   0.70673
C          C       0.40620   0.67280   0.29327
C          C       0.59380   0.67280   0.70673
C          C       0.59380   0.32720   0.29327
C          C       0.70673   0.40620   0.32720
C          C       0.29327   0.40620   0.67280
C          C       0.70673   0.59380   0.67280
C          C       0.29327   0.59380   0.32720
C          C       0.67280   0.29327   0.59380
C          C       0.32720   0.70673   0.59380
C          C       0.32720   0.29327   0.40620
C          C       0.67280   0.70673   0.40620
C          C       0.59380   0.67280   0.29327
C          C       0.59380   0.32720   0.70673
C          C       0.40620   0.32720   0.29327
C          C       0.40620   0.67280   0.70673
C          C       0.29327   0.59380   0.67280
C          C       0.70673   0.59380   0.32720
C          C       0.29327   0.40620   0.32720
C          C       0.70673   0.40620   0.67280
C          C       0.33201   0.69914   0.39498
C          C       0.66799   0.30086   0.39498
C          C       0.66799   0.69914   0.60502
C          C       0.33201   0.30086   0.60502
C          C       0.39498   0.33201   0.69914
C          C       0.39498   0.66799   0.30086
C          C       0.60502   0.66799   0.69914
C          C       0.60502   0.33201   0.30086
C          C       0.69914   0.39498   0.33201
C          C       0.30086   0.39498   0.66799
C          C       0.69914   0.60502   0.66799
C          C       0.30086   0.60502   0.33201
C          C       0.66799   0.30086   0.60502
C          C       0.33201   0.69914   0.60502
C          C       0.33201   0.30086   0.39498
C          C       0.66799   0.69914   0.39498
C          C       0.60502   0.66799   0.30086
C          C       0.60502   0.33201   0.69914
C          C       0.39498   0.33201   0.30086
C          C       0.39498   0.66799   0.69914
C          C       0.30086   0.60502   0.66799
C          C       0.69914   0.60502   0.33201
C          C       0.30086   0.39498   0.33201
C          C       0.69914   0.39498   0.66799
C          C       0.32517   0.68710   0.39077
C          C       0.67483   0.31290   0.39077
C          C       0.67483   0.68710   0.60923
C          C       0.32517   0.31290   0.60923
C          C       0.39077   0.32517   0.68710
C          C       0.39077   0.67483   0.31290
C          C       0.60923   0.67483   0.68710
C          C       0.60923   0.32517   0.31290
C          C       0.68710   0.39077   0.32517
C          C       0.31290   0.39077   0.67483
C          C       0.68710   0.60923   0.67483
C          C       0.31290   0.60923   0.32517
C          C       0.67483   0.31290   0.60923
C          C       0.32517   0.68710   0.60923
C          C       0.32517   0.31290   0.39077
C          C       0.67483   0.68710   0.39077
C          C       0.60923   0.67483   0.31290
C          C       0.60923   0.32517   0.68710
C          C       0.39077   0.32517   0.31290
C          C       0.39077   0.67483   0.68710
C          C       0.31290   0.60923   0.67483
C          C       0.68710   0.60923   0.32517
C          C       0.31290   0.39077   0.32517
C          C       0.68710   0.39077   0.67483
C          C       0.31346   0.68278   0.39810
C          C       0.68654   0.31722   0.39810
C          C       0.68654   0.68278   0.60190
C          C       0.31346   0.31722   0.60190
C          C       0.39810   0.31346   0.68278
C          C       0.39810   0.68654   0.31722
C          C       0.60190   0.68654   0.68278
C          C       0.60190   0.31346   0.31722
C          C       0.68278   0.39810   0.31346
C          C       0.31722   0.39810   0.68654
C          C       0.68278   0.60190   0.68654
C          C       0.31722   0.60190   0.31346
C          C       0.68654   0.31722   0.60190
C          C       0.31346   0.68278   0.60190
C          C       0.31346   0.31722   0.39810
C          C       0.68654   0.68278   0.39810
C          C       0.60190   0.68654   0.31722
C          C       0.60190   0.31346   0.68278
C          C       0.39810   0.31346   0.31722
C          C       0.39810   0.68654   0.68278
C          C       0.31722   0.60190   0.68654
C          C       0.68278   0.60190   0.31346
C          C       0.31722   0.39810   0.31346
C          C       0.68278   0.39810   0.68654
C          C       0.30864   0.69040   0.40932
C          C       0.69136   0.30960   0.40932
C          C       0.69136   0.69040   0.59068
C          C       0.30864   0.30960   0.59068
C          C       0.40932   0.30864   0.69040
C          C       0.40932   0.69136   0.30960
C          C       0.59068   0.69136   0.69040
C          C       0.59068   0.30864   0.30960
C          C       0.69040   0.40932   0.30864
C          C       0.30960   0.40932   0.69136
C          C       0.69040   0.59068   0.69136
C          C       0.30960   0.59068   0.30864
C          C       0.69136   0.30960   0.59068
C          C       0.30864   0.69040   0.59068
C          C       0.30864   0.30960   0.40932
C          C       0.69136   0.69040   0.40932
C          C       0.59068   0.69136   0.30960
C          C       0.59068   0.30864   0.69040
C          C       0.40932   0.30864   0.30960
C          C       0.40932   0.69136   0.69040
C          C       0.30960   0.59068   0.69136
C          C       0.69040   0.59068   0.30864
C          C       0.30960   0.40932   0.30864
C          C       0.69040   0.40932   0.69136
C          C       0.33010   0.67917   0.37867
C          C       0.66990   0.32083   0.37867
C          C       0.66990   0.67917   0.62133
C          C       0.33010   0.32083   0.62133
C          C       0.37867   0.33010   0.67917
C          C       0.37867   0.66990   0.32083
C          C       0.62133   0.66990   0.67917
C          C       0.62133   0.33010   0.32083
C          C       0.67917   0.37867   0.33010
C          C       0.32083   0.37867   0.66990
C          C       0.67917   0.62133   0.66990
C          C       0.32083   0.62133   0.33010
C          C       0.66990   0.32083   0.62133
C          C       0.33010   0.67917   0.62133
C          C       0.33010   0.32083   0.37867
C          C       0.66990   0.67917   0.37867
C          C       0.62133   0.66990   0.32083
C          C       0.62133   0.33010   0.67917
C          C       0.37867   0.33010   0.32083
C          C       0.37867   0.66990   0.67917
C          C       0.32083   0.62133   0.66990
C          C       0.67917   0.62133   0.33010
C          C       0.32083   0.37867   0.33010
C          C       0.67917   0.37867   0.66990
C          C       0.33466   0.68602   0.36677
C          C       0.66534   0.31398   0.36677
C          C       0.66534   0.68602   0.63323
C          C       0.33466   0.31398   0.63323
C          C       0.36677   0.33466   0.68602
C          C       0.36677   0.66534   0.31398
C          C       0.63323   0.66534   0.68602
C          C       0.63323   0.33466   0.31398
C          C       0.68602   0.36677   0.33466
C          C       0.31398   0.36677   0.66534
C          C       0.68602   0.63323   0.66534
C          C       0.31398   0.63323   0.33466
C          C       0.66534   0.31398   0.63323
C          C       0.33466   0.68602   0.63323
C          C       0.33466   0.31398   0.36677
C          C       0.66534   0.68602   0.36677
C          C       0.63323   0.66534   0.31398
C          C       0.63323   0.33466   0.68602
C          C       0.36677   0.33466   0.31398
C          C       0.36677   0.66534   0.68602
C          C       0.31398   0.63323   0.66534
C          C       0.68602   0.63323   0.33466
C          C       0.31398   0.36677   0.33466
C          C       0.68602   0.36677   0.66534
C          C       0.33911   0.67858   0.35530
C          C       0.66089   0.32142   0.35530
C          C       0.66089   0.67858   0.64470
C          C       0.33911   0.32142   0.64470
C          C       0.35530   0.33911   0.67858
C          C       0.35530   0.66089   0.32142
C          C       0.64470   0.66089   0.67858
C          C       0.64470   0.33911   0.32142
C          C       0.67858   0.35530   0.33911
C          C       0.32142   0.35530   0.66089
C          C       0.67858   0.64470   0.66089
C          C       0.32142   0.64470   0.33911
C          C       0.66089   0.32142   0.64470
C          C       0.33911   0.67858   0.64470
C          C       0.33911   0.32142   0.35530
C          C       0.66089   0.67858   0.35530
C          C       0.64470   0.66089   0.32142
C          C       0.64470   0.33911   0.67858
C          C       0.35530   0.33911   0.32142
C          C       0.35530   0.66089   0.67858
C          C       0.32142   0.64470   0.66089
C          C       0.67858   0.64470   0.33911
C          C       0.32142   0.35530   0.33911
C          C       0.67858   0.35530   0.66089
C          C       0.33913   0.66412   0.35549
C          C       0.66087   0.33588   0.35549
C          C       0.66087   0.66412   0.64451
C          C       0.33913   0.33588   0.64451
C          C       0.35549   0.33913   0.66412
C          C       0.35549   0.66087   0.33588
C          C       0.64451   0.66087   0.66412
C          C       0.64451   0.33913   0.33588
C          C       0.66412   0.35549   0.33913
C          C       0.33588   0.35549   0.66087
C          C       0.66412   0.64451   0.66087
C          C       0.33588   0.64451   0.33913
C          C       0.66087   0.33588   0.64451
C          C       0.33913   0.66412   0.64451
C          C       0.33913   0.33588   0.35549
C          C       0.66087   0.66412   0.35549
C          C       0.64451   0.66087   0.33588
C          C       0.64451   0.33913   0.66412
C          C       0.35549   0.33913   0.33588
C          C       0.35549   0.66087   0.66412
C          C       0.33588   0.64451   0.66087
C          C       0.66412   0.64451   0.33913
C          C       0.33588   0.35549   0.33913
C          C       0.66412   0.35549   0.66087
C          C       0.33464   0.65726   0.36740
C          C       0.66536   0.34274   0.36740
C          C       0.66536   0.65726   0.63260
C          C       0.33464   0.34274   0.63260
C          C       0.36740   0.33464   0.65726
C          C       0.36740   0.66536   0.34274
C          C       0.63260   0.66536   0.65726
C          C       0.63260   0.33464   0.34274
C          C       0.65726   0.36740   0.33464
C          C       0.34274   0.36740   0.66536
C          C       0.65726   0.63260   0.66536
C          C       0.34274   0.63260   0.33464
C          C       0.66536   0.34274   0.63260
C          C       0.33464   0.65726   0.63260
C          C       0.33464   0.34274   0.36740
C          C       0.66536   0.65726   0.36740
C          C       0.63260   0.66536   0.34274
C          C       0.63260   0.33464   0.65726
C          C       0.36740   0.33464   0.34274
C          C       0.36740   0.66536   0.65726
C          C       0.34274   0.63260   0.66536
C          C       0.65726   0.63260   0.33464
C          C       0.34274   0.36740   0.33464
C          C       0.65726   0.36740   0.66536
C          C       0.33016   0.66470   0.37886
C          C       0.66984   0.33530   0.37886
C          C       0.66984   0.66470   0.62114
C          C       0.33016   0.33530   0.62114
C          C       0.37886   0.33016   0.66470
C          C       0.37886   0.66984   0.33530
C          C       0.62114   0.66984   0.66470
C          C       0.62114   0.33016   0.33530
C          C       0.66470   0.37886   0.33016
C          C       0.33530   0.37886   0.66984
C          C       0.66470   0.62114   0.66984
C          C       0.33530   0.62114   0.33016
C          C       0.66984   0.33530   0.62114
C          C       0.33016   0.66470   0.62114
C          C       0.33016   0.33530   0.37886
C          C       0.66984   0.66470   0.37886
C          C       0.62114   0.66984   0.33530
C          C       0.62114   0.33016   0.66470
C          C       0.37886   0.33016   0.33530
C          C       0.37886   0.66984   0.66470
C          C       0.33530   0.62114   0.66984
C          C       0.66470   0.62114   0.33016
C          C       0.33530   0.37886   0.33016
C          C       0.66470   0.37886   0.66984
C          C       0.77183   0.22137   0.46421
C          C       0.22817   0.77863   0.46421
C          C       0.22817   0.22137   0.53579
C          C       0.77183   0.77863   0.53579
C          C       0.46421   0.77183   0.22137
C          C       0.46421   0.22817   0.77863
C          C       0.53579   0.22817   0.22137
C          C       0.53579   0.77183   0.77863
C          C       0.22137   0.46421   0.77183
C          C       0.77863   0.46421   0.22817
C          C       0.22137   0.53579   0.22817
C          C       0.77863   0.53579   0.77183
C          C       0.22817   0.77863   0.53579
C          C       0.77183   0.22137   0.53579
C          C       0.77183   0.77863   0.46421
C          C       0.22817   0.22137   0.46421
C          C       0.53579   0.22817   0.77863
C          C       0.53579   0.77183   0.22137
C          C       0.46421   0.77183   0.77863
C          C       0.46421   0.22817   0.22137
C          C       0.77863   0.53579   0.22817
C          C       0.22137   0.53579   0.77183
C          C       0.77863   0.46421   0.77183
C          C       0.22137   0.46421   0.22817
C          C       0.76518   0.21134   0.45627
C          C       0.23482   0.78866   0.45627
C          C       0.23482   0.21134   0.54373
C          C       0.76518   0.78866   0.54373
C          C       0.45627   0.76518   0.21134
C          C       0.45627   0.23482   0.78866
C          C       0.54373   0.23482   0.21134
C          C       0.54373   0.76518   0.78866
C          C       0.21134   0.45627   0.76518
C          C       0.78866   0.45627   0.23482
C          C       0.21134   0.54373   0.23482
C          C       0.78866   0.54373   0.76518
C          C       0.23482   0.78866   0.54373
C          C       0.76518   0.21134   0.54373
C          C       0.76518   0.78866   0.45627
C          C       0.23482   0.21134   0.45627
C          C       0.54373   0.23482   0.78866
C          C       0.54373   0.76518   0.21134
C          C       0.45627   0.76518   0.78866
C          C       0.45627   0.23482   0.21134
C          C       0.78866   0.54373   0.23482
C          C       0.21134   0.54373   0.76518
C          C       0.78866   0.45627   0.76518
C          C       0.21134   0.45627   0.23482
C          C       0.77224   0.20464   0.44569
C          C       0.22776   0.79536   0.44569
C          C       0.22776   0.20464   0.55431
C          C       0.77224   0.79536   0.55431
C          C       0.44569   0.77224   0.20464
C          C       0.44569   0.22776   0.79536
C          C       0.55431   0.22776   0.20464
C          C       0.55431   0.77224   0.79536
C          C       0.20464   0.44569   0.77224
C          C       0.79536   0.44569   0.22776
C          C       0.20464   0.55431   0.22776
C          C       0.79536   0.55431   0.77224
C          C       0.22776   0.79536   0.55431
C          C       0.77224   0.20464   0.55431
C          C       0.77224   0.79536   0.44569
C          C       0.22776   0.20464   0.44569
C          C       0.55431   0.22776   0.79536
C          C       0.55431   0.77224   0.20464
C          C       0.44569   0.77224   0.79536
C          C       0.44569   0.22776   0.20464
C          C       0.79536   0.55431   0.22776
C          C       0.20464   0.55431   0.77224
C          C       0.79536   0.44569   0.77224
C          C       0.20464   0.44569   0.22776
C          C       0.78599   0.20791   0.44281
C          C       0.21401   0.79209   0.44281
C          C       0.21401   0.20791   0.55719
C          C       0.78599   0.79209   0.55719
C          C       0.44281   0.78599   0.20791
C          C       0.44281   0.21401   0.79209
C          C       0.55719   0.21401   0.20791
C          C       0.55719   0.78599   0.79209
C          C       0.20791   0.44281   0.78599
C          C       0.79209   0.44281   0.21401
C          C       0.20791   0.55719   0.21401
C          C       0.79209   0.55719   0.78599
C          C       0.21401   0.79209   0.55719
C          C       0.78599   0.20791   0.55719
C          C       0.78599   0.79209   0.44281
C          C       0.21401   0.20791   0.44281
C          C       0.55719   0.21401   0.79209
C          C       0.55719   0.78599   0.20791
C          C       0.44281   0.78599   0.79209
C          C       0.44281   0.21401   0.20791
C          C       0.79209   0.55719   0.21401
C          C       0.20791   0.55719   0.78599
C          C       0.79209   0.44281   0.78599
C          C       0.20791   0.44281   0.21401
C          C       0.79275   0.21778   0.45102
C          C       0.20725   0.78222   0.45102
C          C       0.20725   0.21778   0.54898
C          C       0.79275   0.78222   0.54898
C          C       0.45102   0.79275   0.21778
C          C       0.45102   0.20725   0.78222
C          C       0.54898   0.20725   0.21778
C          C       0.54898   0.79275   0.78222
C          C       0.21778   0.45102   0.79275
C          C       0.78222   0.45102   0.20725
C          C       0.21778   0.54898   0.20725
C          C       0.78222   0.54898   0.79275
C          C       0.20725   0.78222   0.54898
C          C       0.79275   0.21778   0.54898
C          C       0.79275   0.78222   0.45102
C          C       0.20725   0.21778   0.45102
C          C       0.54898   0.20725   0.78222
C          C       0.54898   0.79275   0.21778
C          C       0.45102   0.79275   0.78222
C          C       0.45102   0.20725   0.21778
C          C       0.78222   0.54898   0.20725
C          C       0.21778   0.54898   0.79275
C          C       0.78222   0.45102   0.79275
C          C       0.21778   0.45102   0.20725
C          C       0.78568   0.22448   0.46161
C          C       0.21432   0.77552   0.46161
C          C       0.21432   0.22448   0.53839
C          C       0.78568   0.77552   0.53839
C          C       0.46161   0.78568   0.22448
C          C       0.46161   0.21432   0.77552
C          C       0.53839   0.21432   0.22448
C          C       0.53839   0.78568   0.77552
C          C       0.22448   0.46161   0.78568
C          C       0.77552   0.46161   0.21432
C          C       0.22448   0.53839   0.21432
C          C       0.77552   0.53839   0.78568
C          C       0.21432   0.77552   0.53839
C          C       0.78568   0.22448   0.53839
C          C       0.78568   0.77552   0.46161
C          C       0.21432   0.22448   0.46161
C          C       0.53839   0.21432   0.77552
C          C       0.53839   0.78568   0.22448
C          C       0.46161   0.78568   0.77552
C          C       0.46161   0.21432   0.22448
C          C       0.77552   0.53839   0.21432
C          C       0.22448   0.53839   0.78568
C          C       0.77552   0.46161   0.78568
C          C       0.22448   0.46161   0.21432
N          N       0.79259   0.20092   0.43155
N          N       0.20741   0.79908   0.43155
N          N       0.20741   0.20092   0.56845
N          N       0.79259   0.79908   0.56845
N          N       0.43155   0.79259   0.20092
N          N       0.43155   0.20741   0.79908
N          N       0.56845   0.20741   0.20092
N          N       0.56845   0.79259   0.79908
N          N       0.20092   0.43155   0.79259
N          N       0.79908   0.43155   0.20741
N          N       0.20092   0.56845   0.20741
N          N       0.79908   0.56845   0.79259
N          N       0.20741   0.79908   0.56845
N          N       0.79259   0.20092   0.56845
N          N       0.79259   0.79908   0.43155
N          N       0.20741   0.20092   0.43155
N          N       0.56845   0.20741   0.79908
N          N       0.56845   0.79259   0.20092
N          N       0.43155   0.79259   0.79908
N          N       0.43155   0.20741   0.20092
N          N       0.79908   0.56845   0.20741
N          N       0.20092   0.56845   0.79259
N          N       0.79908   0.43155   0.79259
N          N       0.20092   0.43155   0.20741
C          C       0.80418   0.20429   0.42577
C          C       0.19582   0.79571   0.42577
C          C       0.19582   0.20429   0.57423
C          C       0.80418   0.79571   0.57423
C          C       0.42577   0.80418   0.20429
C          C       0.42577   0.19582   0.79571
C          C       0.57423   0.19582   0.20429
C          C       0.57423   0.80418   0.79571
C          C       0.20429   0.42577   0.80418
C          C       0.79571   0.42577   0.19582
C          C       0.20429   0.57423   0.19582
C          C       0.79571   0.57423   0.80418
C          C       0.19582   0.79571   0.57423
C          C       0.80418   0.20429   0.57423
C          C       0.80418   0.79571   0.42577
C          C       0.19582   0.20429   0.42577
C          C       0.57423   0.19582   0.79571
C          C       0.57423   0.80418   0.20429
C          C       0.42577   0.80418   0.79571
C          C       0.42577   0.19582   0.20429
C          C       0.79571   0.57423   0.19582
C          C       0.20429   0.57423   0.80418
C          C       0.79571   0.42577   0.80418
C          C       0.20429   0.42577   0.19582
C          C       0.80962   0.19631   0.41403
C          C       0.19038   0.80369   0.41403
C          C       0.19038   0.19631   0.58597
C          C       0.80962   0.80369   0.58597
C          C       0.41403   0.80962   0.19631
C          C       0.41403   0.19038   0.80369
C          C       0.58597   0.19038   0.19631
C          C       0.58597   0.80962   0.80369
C          C       0.19631   0.41403   0.80962
C          C       0.80369   0.41403   0.19038
C          C       0.19631   0.58597   0.19038
C          C       0.80369   0.58597   0.80962
C          C       0.19038   0.80369   0.58597
C          C       0.80962   0.19631   0.58597
C          C       0.80962   0.80369   0.41403
C          C       0.19038   0.19631   0.41403
C          C       0.58597   0.19038   0.80369
C          C       0.58597   0.80962   0.19631
C          C       0.41403   0.80962   0.80369
C          C       0.41403   0.19038   0.19631
C          C       0.80369   0.58597   0.19038
C          C       0.19631   0.58597   0.80962
C          C       0.80369   0.41403   0.80962
C          C       0.19631   0.41403   0.19038
C          C       0.82184   0.20055   0.40762
C          C       0.17816   0.79945   0.40762
C          C       0.17816   0.20055   0.59238
C          C       0.82184   0.79945   0.59238
C          C       0.40762   0.82184   0.20055
C          C       0.40762   0.17816   0.79945
C          C       0.59238   0.17816   0.20055
C          C       0.59238   0.82184   0.79945
C          C       0.20055   0.40762   0.82184
C          C       0.79945   0.40762   0.17816
C          C       0.20055   0.59238   0.17816
C          C       0.79945   0.59238   0.82184
C          C       0.17816   0.79945   0.59238
C          C       0.82184   0.20055   0.59238
C          C       0.82184   0.79945   0.40762
C          C       0.17816   0.20055   0.40762
C          C       0.59238   0.17816   0.79945
C          C       0.59238   0.82184   0.20055
C          C       0.40762   0.82184   0.79945
C          C       0.40762   0.17816   0.20055
C          C       0.79945   0.59238   0.17816
C          C       0.20055   0.59238   0.82184
C          C       0.79945   0.40762   0.82184
C          C       0.20055   0.40762   0.17816
C          C       0.82702   0.19336   0.39629
C          C       0.17298   0.80664   0.39629
C          C       0.17298   0.19336   0.60371
C          C       0.82702   0.80664   0.60371
C          C       0.39629   0.82702   0.19336
C          C       0.39629   0.17298   0.80664
C          C       0.60371   0.17298   0.19336
C          C       0.60371   0.82702   0.80664
C          C       0.19336   0.39629   0.82702
C          C       0.80664   0.39629   0.17298
C          C       0.19336   0.60371   0.17298
C          C       0.80664   0.60371   0.82702
C          C       0.17298   0.80664   0.60371
C          C       0.82702   0.19336   0.60371
C          C       0.82702   0.80664   0.39629
C          C       0.17298   0.19336   0.39629
C          C       0.60371   0.17298   0.80664
C          C       0.60371   0.82702   0.19336
C          C       0.39629   0.82702   0.80664
C          C       0.39629   0.17298   0.19336
C          C       0.80664   0.60371   0.17298
C          C       0.19336   0.60371   0.82702
C          C       0.80664   0.39629   0.82702
C          C       0.19336   0.39629   0.17298
C          C       0.82008   0.18175   0.39115
C          C       0.17992   0.81825   0.39115
C          C       0.17992   0.18175   0.60885
C          C       0.82008   0.81825   0.60885
C          C       0.39115   0.82008   0.18175
C          C       0.39115   0.17992   0.81825
C          C       0.60885   0.17992   0.18175
C          C       0.60885   0.82008   0.81825
C          C       0.18175   0.39115   0.82008
C          C       0.81825   0.39115   0.17992
C          C       0.18175   0.60885   0.17992
C          C       0.81825   0.60885   0.82008
C          C       0.17992   0.81825   0.60885
C          C       0.82008   0.18175   0.60885
C          C       0.82008   0.81825   0.39115
C          C       0.17992   0.18175   0.39115
C          C       0.60885   0.17992   0.81825
C          C       0.60885   0.82008   0.18175
C          C       0.39115   0.82008   0.81825
C          C       0.39115   0.17992   0.18175
C          C       0.81825   0.60885   0.17992
C          C       0.18175   0.60885   0.82008
C          C       0.81825   0.39115   0.82008
C          C       0.18175   0.39115   0.17992
C          C       0.80790   0.17744   0.39766
C          C       0.19210   0.82256   0.39766
C          C       0.19210   0.17744   0.60234
C          C       0.80790   0.82256   0.60234
C          C       0.39766   0.80790   0.17744
C          C       0.39766   0.19210   0.82256
C          C       0.60234   0.19210   0.17744
C          C       0.60234   0.80790   0.82256
C          C       0.17744   0.39766   0.80790
C          C       0.82256   0.39766   0.19210
C          C       0.17744   0.60234   0.19210
C          C       0.82256   0.60234   0.80790
C          C       0.19210   0.82256   0.60234
C          C       0.80790   0.17744   0.60234
C          C       0.80790   0.82256   0.39766
C          C       0.19210   0.17744   0.39766
C          C       0.60234   0.19210   0.82256
C          C       0.60234   0.80790   0.17744
C          C       0.39766   0.80790   0.82256
C          C       0.39766   0.19210   0.17744
C          C       0.82256   0.60234   0.19210
C          C       0.17744   0.60234   0.80790
C          C       0.82256   0.39766   0.80790
C          C       0.17744   0.39766   0.19210
C          C       0.80271   0.18464   0.40898
C          C       0.19729   0.81536   0.40898
C          C       0.19729   0.18464   0.59102
C          C       0.80271   0.81536   0.59102
C          C       0.40898   0.80271   0.18464
C          C       0.40898   0.19729   0.81536
C          C       0.59102   0.19729   0.18464
C          C       0.59102   0.80271   0.81536
C          C       0.18464   0.40898   0.80271
C          C       0.81536   0.40898   0.19729
C          C       0.18464   0.59102   0.19729
C          C       0.81536   0.59102   0.80271
C          C       0.19729   0.81536   0.59102
C          C       0.80271   0.18464   0.59102
C          C       0.80271   0.81536   0.40898
C          C       0.19729   0.18464   0.40898
C          C       0.59102   0.19729   0.81536
C          C       0.59102   0.80271   0.18464
C          C       0.40898   0.80271   0.81536
C          C       0.40898   0.19729   0.18464
C          C       0.81536   0.59102   0.19729
C          C       0.18464   0.59102   0.80271
C          C       0.81536   0.40898   0.80271
C          C       0.18464   0.40898   0.19729
C          C       0.82543   0.17427   0.37895
C          C       0.17457   0.82573   0.37895
C          C       0.17457   0.17427   0.62105
C          C       0.82543   0.82573   0.62105
C          C       0.37895   0.82543   0.17427
C          C       0.37895   0.17457   0.82573
C          C       0.62105   0.17457   0.17427
C          C       0.62105   0.82543   0.82573
C          C       0.17427   0.37895   0.82543
C          C       0.82573   0.37895   0.17457
C          C       0.17427   0.62105   0.17457
C          C       0.82573   0.62105   0.82543
C          C       0.17457   0.82573   0.62105
C          C       0.82543   0.17427   0.62105
C          C       0.82543   0.82573   0.37895
C          C       0.17457   0.17427   0.37895
C          C       0.62105   0.17457   0.82573
C          C       0.62105   0.82543   0.17427
C          C       0.37895   0.82543   0.82573
C          C       0.37895   0.17457   0.17427
C          C       0.82573   0.62105   0.17457
C          C       0.17427   0.62105   0.82543
C          C       0.82573   0.37895   0.82543
C          C       0.17427   0.37895   0.17457
C          C       0.83079   0.18155   0.36764
C          C       0.16921   0.81845   0.36764
C          C       0.16921   0.18155   0.63236
C          C       0.83079   0.81845   0.63236
C          C       0.36764   0.83079   0.18155
C          C       0.36764   0.16921   0.81845
C          C       0.63236   0.16921   0.18155
C          C       0.63236   0.83079   0.81845
C          C       0.18155   0.36764   0.83079
C          C       0.81845   0.36764   0.16921
C          C       0.18155   0.63236   0.16921
C          C       0.81845   0.63236   0.83079
C          C       0.16921   0.81845   0.63236
C          C       0.83079   0.18155   0.63236
C          C       0.83079   0.81845   0.36764
C          C       0.16921   0.18155   0.36764
C          C       0.63236   0.16921   0.81845
C          C       0.63236   0.83079   0.18155
C          C       0.36764   0.83079   0.81845
C          C       0.36764   0.16921   0.18155
C          C       0.81845   0.63236   0.16921
C          C       0.18155   0.63236   0.83079
C          C       0.81845   0.36764   0.83079
C          C       0.18155   0.36764   0.16921
C          C       0.83564   0.17453   0.35607
C          C       0.16436   0.82547   0.35607
C          C       0.16436   0.17453   0.64393
C          C       0.83564   0.82547   0.64393
C          C       0.35607   0.83564   0.17453
C          C       0.35607   0.16436   0.82547
C          C       0.64393   0.16436   0.17453
C          C       0.64393   0.83564   0.82547
C          C       0.17453   0.35607   0.83564
C          C       0.82547   0.35607   0.16436
C          C       0.17453   0.64393   0.16436
C          C       0.82547   0.64393   0.83564
C          C       0.16436   0.82547   0.64393
C          C       0.83564   0.17453   0.64393
C          C       0.83564   0.82547   0.35607
C          C       0.16436   0.17453   0.35607
C          C       0.64393   0.16436   0.82547
C          C       0.64393   0.83564   0.17453
C          C       0.35607   0.83564   0.82547
C          C       0.35607   0.16436   0.17453
C          C       0.82547   0.64393   0.16436
C          C       0.17453   0.64393   0.83564
C          C       0.82547   0.35607   0.83564
C          C       0.17453   0.35607   0.16436
C          C       0.83528   0.16009   0.35556
C          C       0.16472   0.83991   0.35556
C          C       0.16472   0.16009   0.64444
C          C       0.83528   0.83991   0.64444
C          C       0.35556   0.83528   0.16009
C          C       0.35556   0.16472   0.83991
C          C       0.64444   0.16472   0.16009
C          C       0.64444   0.83528   0.83991
C          C       0.16009   0.35556   0.83528
C          C       0.83991   0.35556   0.16472
C          C       0.16009   0.64444   0.16472
C          C       0.83991   0.64444   0.83528
C          C       0.16472   0.83991   0.64444
C          C       0.83528   0.16009   0.64444
C          C       0.83528   0.83991   0.35556
C          C       0.16472   0.16009   0.35556
C          C       0.64444   0.16472   0.83991
C          C       0.64444   0.83528   0.16009
C          C       0.35556   0.83528   0.83991
C          C       0.35556   0.16472   0.16009
C          C       0.83991   0.64444   0.16472
C          C       0.16009   0.64444   0.83528
C          C       0.83991   0.35556   0.83528
C          C       0.16009   0.35556   0.16472
C          C       0.82999   0.15280   0.36687
C          C       0.17001   0.84720   0.36687
C          C       0.17001   0.15280   0.63313
C          C       0.82999   0.84720   0.63313
C          C       0.36687   0.82999   0.15280
C          C       0.36687   0.17001   0.84720
C          C       0.63313   0.17001   0.15280
C          C       0.63313   0.82999   0.84720
C          C       0.15280   0.36687   0.82999
C          C       0.84720   0.36687   0.17001
C          C       0.15280   0.63313   0.17001
C          C       0.84720   0.63313   0.82999
C          C       0.17001   0.84720   0.63313
C          C       0.82999   0.15280   0.63313
C          C       0.82999   0.84720   0.36687
C          C       0.17001   0.15280   0.36687
C          C       0.63313   0.17001   0.84720
C          C       0.63313   0.82999   0.15280
C          C       0.36687   0.82999   0.84720
C          C       0.36687   0.17001   0.15280
C          C       0.84720   0.63313   0.17001
C          C       0.15280   0.63313   0.82999
C          C       0.84720   0.36687   0.82999
C          C       0.15280   0.36687   0.17001
C          C       0.82511   0.15981   0.37844
C          C       0.17489   0.84019   0.37844
C          C       0.17489   0.15981   0.62156
C          C       0.82511   0.84019   0.62156
C          C       0.37844   0.82511   0.15981
C          C       0.37844   0.17489   0.84019
C          C       0.62156   0.17489   0.15981
C          C       0.62156   0.82511   0.84019
C          C       0.15981   0.37844   0.82511
C          C       0.84019   0.37844   0.17489
C          C       0.15981   0.62156   0.17489
C          C       0.84019   0.62156   0.82511
C          C       0.17489   0.84019   0.62156
C          C       0.82511   0.15981   0.62156
C          C       0.82511   0.84019   0.37844
C          C       0.17489   0.15981   0.37844
C          C       0.62156   0.17489   0.84019
C          C       0.62156   0.82511   0.15981
C          C       0.37844   0.82511   0.84019
C          C       0.37844   0.17489   0.15981
C          C       0.84019   0.62156   0.17489
C          C       0.15981   0.62156   0.82511
C          C       0.84019   0.37844   0.82511
C          C       0.15981   0.37844   0.17489
C          C       0.27165   0.23111   0.96423
C          C       0.72835   0.76889   0.96423
C          C       0.72835   0.23111   0.03577
C          C       0.27165   0.76889   0.03577
C          C       0.96423   0.27165   0.23111
C          C       0.96423   0.72835   0.76889
C          C       0.03577   0.72835   0.23111
C          C       0.03577   0.27165   0.76889
C          C       0.23111   0.96423   0.27165
C          C       0.76889   0.96423   0.72835
C          C       0.23111   0.03577   0.72835
C          C       0.76889   0.03577   0.27165
C          C       0.72835   0.76889   0.03577
C          C       0.27165   0.23111   0.03577
C          C       0.27165   0.76889   0.96423
C          C       0.72835   0.23111   0.96423
C          C       0.03577   0.72835   0.76889
C          C       0.03577   0.27165   0.23111
C          C       0.96423   0.27165   0.76889
C          C       0.96423   0.72835   0.23111
C          C       0.76889   0.03577   0.72835
C          C       0.23111   0.03577   0.27165
C          C       0.76889   0.96423   0.27165
C          C       0.23111   0.96423   0.72835
C          C       0.26931   0.21715   0.96147
C          C       0.73069   0.78285   0.96147
C          C       0.73069   0.21715   0.03853
C          C       0.26931   0.78285   0.03853
C          C       0.96147   0.26931   0.21715
C          C       0.96147   0.73069   0.78285
C          C       0.03853   0.73069   0.21715
C          C       0.03853   0.26931   0.78285
C          C       0.21715   0.96147   0.26931
C          C       0.78285   0.96147   0.73069
C          C       0.21715   0.03853   0.73069
C          C       0.78285   0.03853   0.26931
C          C       0.73069   0.78285   0.03853
C          C       0.26931   0.21715   0.03853
C          C       0.26931   0.78285   0.96147
C          C       0.73069   0.21715   0.96147
C          C       0.03853   0.73069   0.78285
C          C       0.03853   0.26931   0.21715
C          C       0.96147   0.26931   0.78285
C          C       0.96147   0.73069   0.21715
C          C       0.78285   0.03853   0.73069
C          C       0.21715   0.03853   0.26931
C          C       0.78285   0.96147   0.26931
C          C       0.21715   0.96147   0.73069
C          C       0.27664   0.21052   0.95102
C          C       0.72336   0.78948   0.95102
C          C       0.72336   0.21052   0.04898
C          C       0.27664   0.78948   0.04898
C          C       0.95102   0.27664   0.21052
C          C       0.95102   0.72336   0.78948
C          C       0.04898   0.72336   0.21052
C          C       0.04898   0.27664   0.78948
C          C       0.21052   0.95102   0.27664
C          C       0.78948   0.95102   0.72336
C          C       0.21052   0.04898   0.72336
C          C       0.78948   0.04898   0.27664
C          C       0.72336   0.78948   0.04898
C          C       0.27664   0.21052   0.04898
C          C       0.27664   0.78948   0.95102
C          C       0.72336   0.21052   0.95102
C          C       0.04898   0.72336   0.78948
C          C       0.04898   0.27664   0.21052
C          C       0.95102   0.27664   0.78948
C          C       0.95102   0.72336   0.21052
C          C       0.78948   0.04898   0.72336
C          C       0.21052   0.04898   0.27664
C          C       0.78948   0.95102   0.27664
C          C       0.21052   0.95102   0.72336
C          C       0.28646   0.21767   0.94325
C          C       0.71354   0.78233   0.94325
C          C       0.71354   0.21767   0.05675
C          C       0.28646   0.78233   0.05675
C          C       0.94325   0.28646   0.21767
C          C       0.94325   0.71354   0.78233
C          C       0.05675   0.71354   0.21767
C          C       0.05675   0.28646   0.78233
C          C       0.21767   0.94325   0.28646
C          C       0.78233   0.94325   0.71354
C          C       0.21767   0.05675   0.71354
C          C       0.78233   0.05675   0.28646
C          C       0.71354   0.78233   0.05675
C          C       0.28646   0.21767   0.05675
C          C       0.28646   0.78233   0.94325
C          C       0.71354   0.21767   0.94325
C          C       0.05675   0.71354   0.78233
C          C       0.05675   0.28646   0.21767
C          C       0.94325   0.28646   0.78233
C          C       0.94325   0.71354   0.21767
C          C       0.78233   0.05675   0.71354
C          C       0.21767   0.05675   0.28646
C          C       0.78233   0.94325   0.28646
C          C       0.21767   0.94325   0.71354
C          C       0.28875   0.23174   0.94602
C          C       0.71125   0.76826   0.94602
C          C       0.71125   0.23174   0.05398
C          C       0.28875   0.76826   0.05398
C          C       0.94602   0.28875   0.23174
C          C       0.94602   0.71125   0.76826
C          C       0.05398   0.71125   0.23174
C          C       0.05398   0.28875   0.76826
C          C       0.23174   0.94602   0.28875
C          C       0.76826   0.94602   0.71125
C          C       0.23174   0.05398   0.71125
C          C       0.76826   0.05398   0.28875
C          C       0.71125   0.76826   0.05398
C          C       0.28875   0.23174   0.05398
C          C       0.28875   0.76826   0.94602
C          C       0.71125   0.23174   0.94602
C          C       0.05398   0.71125   0.76826
C          C       0.05398   0.28875   0.23174
C          C       0.94602   0.28875   0.76826
C          C       0.94602   0.71125   0.23174
C          C       0.76826   0.05398   0.71125
C          C       0.23174   0.05398   0.28875
C          C       0.76826   0.94602   0.28875
C          C       0.23174   0.94602   0.71125
C          C       0.28141   0.23836   0.95646
C          C       0.71859   0.76164   0.95646
C          C       0.71859   0.23836   0.04354
C          C       0.28141   0.76164   0.04354
C          C       0.95646   0.28141   0.23836
C          C       0.95646   0.71859   0.76164
C          C       0.04354   0.71859   0.23836
C          C       0.04354   0.28141   0.76164
C          C       0.23836   0.95646   0.28141
C          C       0.76164   0.95646   0.71859
C          C       0.23836   0.04354   0.71859
C          C       0.76164   0.04354   0.28141
C          C       0.71859   0.76164   0.04354
C          C       0.28141   0.23836   0.04354
C          C       0.28141   0.76164   0.95646
C          C       0.71859   0.23836   0.95646
C          C       0.04354   0.71859   0.76164
C          C       0.04354   0.28141   0.23836
C          C       0.95646   0.28141   0.76164
C          C       0.95646   0.71859   0.23836
C          C       0.76164   0.04354   0.71859
C          C       0.23836   0.04354   0.28141
C          C       0.76164   0.95646   0.28141
C          C       0.23836   0.95646   0.71859
N          N       0.29340   0.21042   0.93238
N          N       0.70660   0.78958   0.93238
N          N       0.70660   0.21042   0.06762
N          N       0.29340   0.78958   0.06762
N          N       0.93238   0.29340   0.21042
N          N       0.93238   0.70660   0.78958
N          N       0.06762   0.70660   0.21042
N          N       0.06762   0.29340   0.78958
N          N       0.21042   0.93238   0.29340
N          N       0.78958   0.93238   0.70660
N          N       0.21042   0.06762   0.70660
N          N       0.78958   0.06762   0.29340
N          N       0.70660   0.78958   0.06762
N          N       0.29340   0.21042   0.06762
N          N       0.29340   0.78958   0.93238
N          N       0.70660   0.21042   0.93238
N          N       0.06762   0.70660   0.78958
N          N       0.06762   0.29340   0.21042
N          N       0.93238   0.29340   0.78958
N          N       0.93238   0.70660   0.21042
N          N       0.78958   0.06762   0.70660
N          N       0.21042   0.06762   0.29340
N          N       0.78958   0.93238   0.29340
N          N       0.21042   0.93238   0.70660
C          C       0.30434   0.21447   0.92583
C          C       0.69566   0.78553   0.92583
C          C       0.69566   0.21447   0.07417
C          C       0.30434   0.78553   0.07417
C          C       0.92583   0.30434   0.21447
C          C       0.92583   0.69566   0.78553
C          C       0.07417   0.69566   0.21447
C          C       0.07417   0.30434   0.78553
C          C       0.21447   0.92583   0.30434
C          C       0.78553   0.92583   0.69566
C          C       0.21447   0.07417   0.69566
C          C       0.78553   0.07417   0.30434
C          C       0.69566   0.78553   0.07417
C          C       0.30434   0.21447   0.07417
C          C       0.30434   0.78553   0.92583
C          C       0.69566   0.21447   0.92583
C          C       0.07417   0.69566   0.78553
C          C       0.07417   0.30434   0.21447
C          C       0.92583   0.30434   0.78553
C          C       0.92583   0.69566   0.21447
C          C       0.78553   0.07417   0.69566
C          C       0.21447   0.07417   0.30434
C          C       0.78553   0.92583   0.30434
C          C       0.21447   0.92583   0.69566
C          C       0.31018   0.20612   0.91454
C          C       0.68982   0.79388   0.91454
C          C       0.68982   0.20612   0.08546
C          C       0.31018   0.79388   0.08546
C          C       0.91454   0.31018   0.20612
C          C       0.91454   0.68982   0.79388
C          C       0.08546   0.68982   0.20612
C          C       0.08546   0.31018   0.79388
C          C       0.20612   0.91454   0.31018
C          C       0.79388   0.91454   0.68982
C          C       0.20612   0.08546   0.68982
C          C       0.79388   0.08546   0.31018
C          C       0.68982   0.79388   0.08546
C          C       0.31018   0.20612   0.08546
C          C       0.31018   0.79388   0.91454
C          C       0.68982   0.20612   0.91454
C          C       0.08546   0.68982   0.79388
C          C       0.08546   0.31018   0.20612
C          C       0.91454   0.31018   0.79388
C          C       0.91454   0.68982   0.20612
C          C       0.79388   0.08546   0.68982
C          C       0.20612   0.08546   0.31018
C          C       0.79388   0.91454   0.31018
C          C       0.20612   0.91454   0.68982
C          C       0.32197   0.21079   0.90764
C          C       0.67803   0.78921   0.90764
C          C       0.67803   0.21079   0.09236
C          C       0.32197   0.78921   0.09236
C          C       0.90764   0.32197   0.21079
C          C       0.90764   0.67803   0.78921
C          C       0.09236   0.67803   0.21079
C          C       0.09236   0.32197   0.78921
C          C       0.21079   0.90764   0.32197
C          C       0.78921   0.90764   0.67803
C          C       0.21079   0.09236   0.67803
C          C       0.78921   0.09236   0.32197
C          C       0.67803   0.78921   0.09236
C          C       0.32197   0.21079   0.09236
C          C       0.32197   0.78921   0.90764
C          C       0.67803   0.21079   0.90764
C          C       0.09236   0.67803   0.78921
C          C       0.09236   0.32197   0.21079
C          C       0.90764   0.32197   0.78921
C          C       0.90764   0.67803   0.21079
C          C       0.78921   0.09236   0.67803
C          C       0.21079   0.09236   0.32197
C          C       0.78921   0.90764   0.32197
C          C       0.21079   0.90764   0.67803
C          C       0.32756   0.20320   0.89678
C          C       0.67244   0.79680   0.89678
C          C       0.67244   0.20320   0.10322
C          C       0.32756   0.79680   0.10322
C          C       0.89678   0.32756   0.20320
C          C       0.89678   0.67244   0.79680
C          C       0.10322   0.67244   0.20320
C          C       0.10322   0.32756   0.79680
C          C       0.20320   0.89678   0.32756
C          C       0.79680   0.89678   0.67244
C          C       0.20320   0.10322   0.67244
C          C       0.79680   0.10322   0.32756
C          C       0.67244   0.79680   0.10322
C          C       0.32756   0.20320   0.10322
C          C       0.32756   0.79680   0.89678
C          C       0.67244   0.20320   0.89678
C          C       0.10322   0.67244   0.79680
C          C       0.10322   0.32756   0.20320
C          C       0.89678   0.32756   0.79680
C          C       0.89678   0.67244   0.20320
C          C       0.79680   0.10322   0.67244
C          C       0.20320   0.10322   0.32756
C          C       0.79680   0.89678   0.32756
C          C       0.20320   0.89678   0.67244
C          C       0.32147   0.19075   0.89260
C          C       0.67853   0.80925   0.89260
C          C       0.67853   0.19075   0.10740
C          C       0.32147   0.80925   0.10740
C          C       0.89260   0.32147   0.19075
C          C       0.89260   0.67853   0.80925
C          C       0.10740   0.67853   0.19075
C          C       0.10740   0.32147   0.80925
C          C       0.19075   0.89260   0.32147
C          C       0.80925   0.89260   0.67853
C          C       0.19075   0.10740   0.67853
C          C       0.80925   0.10740   0.32147
C          C       0.67853   0.80925   0.10740
C          C       0.32147   0.19075   0.10740
C          C       0.32147   0.80925   0.89260
C          C       0.67853   0.19075   0.89260
C          C       0.10740   0.67853   0.80925
C          C       0.10740   0.32147   0.19075
C          C       0.89260   0.32147   0.80925
C          C       0.89260   0.67853   0.19075
C          C       0.80925   0.10740   0.67853
C          C       0.19075   0.10740   0.32147
C          C       0.80925   0.89260   0.32147
C          C       0.19075   0.89260   0.67853
C          C       0.30970   0.18605   0.89958
C          C       0.69030   0.81395   0.89958
C          C       0.69030   0.18605   0.10042
C          C       0.30970   0.81395   0.10042
C          C       0.89958   0.30970   0.18605
C          C       0.89958   0.69030   0.81395
C          C       0.10042   0.69030   0.18605
C          C       0.10042   0.30970   0.81395
C          C       0.18605   0.89958   0.30970
C          C       0.81395   0.89958   0.69030
C          C       0.18605   0.10042   0.69030
C          C       0.81395   0.10042   0.30970
C          C       0.69030   0.81395   0.10042
C          C       0.30970   0.18605   0.10042
C          C       0.30970   0.81395   0.89958
C          C       0.69030   0.18605   0.89958
C          C       0.10042   0.69030   0.81395
C          C       0.10042   0.30970   0.18605
C          C       0.89958   0.30970   0.81395
C          C       0.89958   0.69030   0.18605
C          C       0.81395   0.10042   0.69030
C          C       0.18605   0.10042   0.30970
C          C       0.81395   0.89958   0.30970
C          C       0.18605   0.89958   0.69030
C          C       0.30410   0.19366   0.91043
C          C       0.69590   0.80634   0.91043
C          C       0.69590   0.19366   0.08957
C          C       0.30410   0.80634   0.08957
C          C       0.91043   0.30410   0.19366
C          C       0.91043   0.69590   0.80634
C          C       0.08957   0.69590   0.19366
C          C       0.08957   0.30410   0.80634
C          C       0.19366   0.91043   0.30410
C          C       0.80634   0.91043   0.69590
C          C       0.19366   0.08957   0.69590
C          C       0.80634   0.08957   0.30410
C          C       0.69590   0.80634   0.08957
C          C       0.30410   0.19366   0.08957
C          C       0.30410   0.80634   0.91043
C          C       0.69590   0.19366   0.91043
C          C       0.08957   0.69590   0.80634
C          C       0.08957   0.30410   0.19366
C          C       0.91043   0.30410   0.80634
C          C       0.91043   0.69590   0.19366
C          C       0.80634   0.08957   0.69590
C          C       0.19366   0.08957   0.30410
C          C       0.80634   0.91043   0.30410
C          C       0.19366   0.91043   0.69590
C          C       0.32729   0.18277   0.88094
C          C       0.67271   0.81723   0.88094
C          C       0.67271   0.18277   0.11906
C          C       0.32729   0.81723   0.11906
C          C       0.88094   0.32729   0.18277
C          C       0.88094   0.67271   0.81723
C          C       0.11906   0.67271   0.18277
C          C       0.11906   0.32729   0.81723
C          C       0.18277   0.88094   0.32729
C          C       0.81723   0.88094   0.67271
C          C       0.18277   0.11906   0.67271
C          C       0.81723   0.11906   0.32729
C          C       0.67271   0.81723   0.11906
C          C       0.32729   0.18277   0.11906
C          C       0.32729   0.81723   0.88094
C          C       0.67271   0.18277   0.88094
C          C       0.11906   0.67271   0.81723
C          C       0.11906   0.32729   0.18277
C          C       0.88094   0.32729   0.81723
C          C       0.88094   0.67271   0.18277
C          C       0.81723   0.11906   0.67271
C          C       0.18277   0.11906   0.32729
C          C       0.81723   0.88094   0.32729
C          C       0.18277   0.88094   0.67271
C          C       0.33204   0.18954   0.86906
C          C       0.66796   0.81046   0.86906
C          C       0.66796   0.18954   0.13094
C          C       0.33204   0.81046   0.13094
C          C       0.86906   0.33204   0.18954
C          C       0.86906   0.66796   0.81046
C          C       0.13094   0.66796   0.18954
C          C       0.13094   0.33204   0.81046
C          C       0.18954   0.86906   0.33204
C          C       0.81046   0.86906   0.66796
C          C       0.18954   0.13094   0.66796
C          C       0.81046   0.13094   0.33204
C          C       0.66796   0.81046   0.13094
C          C       0.33204   0.18954   0.13094
C          C       0.33204   0.81046   0.86906
C          C       0.66796   0.18954   0.86906
C          C       0.13094   0.66796   0.81046
C          C       0.13094   0.33204   0.18954
C          C       0.86906   0.33204   0.81046
C          C       0.86906   0.66796   0.18954
C          C       0.81046   0.13094   0.66796
C          C       0.18954   0.13094   0.33204
C          C       0.81046   0.86906   0.33204
C          C       0.18954   0.86906   0.66796
C          C       0.33739   0.18203   0.85803
C          C       0.66261   0.81797   0.85803
C          C       0.66261   0.18203   0.14197
C          C       0.33739   0.81797   0.14197
C          C       0.85803   0.33739   0.18203
C          C       0.85803   0.66261   0.81797
C          C       0.14197   0.66261   0.18203
C          C       0.14197   0.33739   0.81797
C          C       0.18203   0.85803   0.33739
C          C       0.81797   0.85803   0.66261
C          C       0.18203   0.14197   0.66261
C          C       0.81797   0.14197   0.33739
C          C       0.66261   0.81797   0.14197
C          C       0.33739   0.18203   0.14197
C          C       0.33739   0.81797   0.85803
C          C       0.66261   0.18203   0.85803
C          C       0.14197   0.66261   0.81797
C          C       0.14197   0.33739   0.18203
C          C       0.85803   0.33739   0.81797
C          C       0.85803   0.66261   0.18203
C          C       0.81797   0.14197   0.66261
C          C       0.18203   0.14197   0.33739
C          C       0.81797   0.85803   0.33739
C          C       0.18203   0.85803   0.66261
C          C       0.33812   0.16761   0.85863
C          C       0.66188   0.83239   0.85863
C          C       0.66188   0.16761   0.14137
C          C       0.33812   0.83239   0.14137
C          C       0.85863   0.33812   0.16761
C          C       0.85863   0.66188   0.83239
C          C       0.14137   0.66188   0.16761
C          C       0.14137   0.33812   0.83239
C          C       0.16761   0.85863   0.33812
C          C       0.83239   0.85863   0.66188
C          C       0.16761   0.14137   0.66188
C          C       0.83239   0.14137   0.33812
C          C       0.66188   0.83239   0.14137
C          C       0.33812   0.16761   0.14137
C          C       0.33812   0.83239   0.85863
C          C       0.66188   0.16761   0.85863
C          C       0.14137   0.66188   0.83239
C          C       0.14137   0.33812   0.16761
C          C       0.85863   0.33812   0.83239
C          C       0.85863   0.66188   0.16761
C          C       0.83239   0.14137   0.66188
C          C       0.16761   0.14137   0.33812
C          C       0.83239   0.85863   0.33812
C          C       0.16761   0.85863   0.66188
C          C       0.33343   0.16084   0.87051
C          C       0.66657   0.83916   0.87051
C          C       0.66657   0.16084   0.12949
C          C       0.33343   0.83916   0.12949
C          C       0.87051   0.33343   0.16084
C          C       0.87051   0.66657   0.83916
C          C       0.12949   0.66657   0.16084
C          C       0.12949   0.33343   0.83916
C          C       0.16084   0.87051   0.33343
C          C       0.83916   0.87051   0.66657
C          C       0.16084   0.12949   0.66657
C          C       0.83916   0.12949   0.33343
C          C       0.66657   0.83916   0.12949
C          C       0.33343   0.16084   0.12949
C          C       0.33343   0.83916   0.87051
C          C       0.66657   0.16084   0.87051
C          C       0.12949   0.66657   0.83916
C          C       0.12949   0.33343   0.16084
C          C       0.87051   0.33343   0.83916
C          C       0.87051   0.66657   0.16084
C          C       0.83916   0.12949   0.66657
C          C       0.16084   0.12949   0.33343
C          C       0.83916   0.87051   0.33343
C          C       0.16084   0.87051   0.66657
C          C       0.32806   0.16833   0.88155
C          C       0.67194   0.83167   0.88155
C          C       0.67194   0.16833   0.11845
C          C       0.32806   0.83167   0.11845
C          C       0.88155   0.32806   0.16833
C          C       0.88155   0.67194   0.83167
C          C       0.11845   0.67194   0.16833
C          C       0.11845   0.32806   0.83167
C          C       0.16833   0.88155   0.32806
C          C       0.83167   0.88155   0.67194
C          C       0.16833   0.11845   0.67194
C          C       0.83167   0.11845   0.32806
C          C       0.67194   0.83167   0.11845
C          C       0.32806   0.16833   0.11845
C          C       0.32806   0.83167   0.88155
C          C       0.67194   0.16833   0.88155
C          C       0.11845   0.67194   0.83167
C          C       0.11845   0.32806   0.16833
C          C       0.88155   0.32806   0.83167
C          C       0.88155   0.67194   0.16833
C          C       0.83167   0.11845   0.67194
C          C       0.16833   0.11845   0.32806
C          C       0.83167   0.88155   0.32806
C          C       0.16833   0.88155   0.67194
C          C       0.78119   0.72086   0.96419
C          C       0.21881   0.27914   0.96419
C          C       0.21881   0.72086   0.03581
C          C       0.78119   0.27914   0.03581
C          C       0.96419   0.78119   0.72086
C          C       0.96419   0.21881   0.27914
C          C       0.03581   0.21881   0.72086
C          C       0.03581   0.78119   0.27914
C          C       0.72086   0.96419   0.78119
C          C       0.27914   0.96419   0.21881
C          C       0.72086   0.03581   0.21881
C          C       0.27914   0.03581   0.78119
C          C       0.21881   0.27914   0.03581
C          C       0.78119   0.72086   0.03581
C          C       0.78119   0.27914   0.96419
C          C       0.21881   0.72086   0.96419
C          C       0.03581   0.21881   0.27914
C          C       0.03581   0.78119   0.72086
C          C       0.96419   0.78119   0.27914
C          C       0.96419   0.21881   0.72086
C          C       0.27914   0.03581   0.21881
C          C       0.72086   0.03581   0.78119
C          C       0.27914   0.96419   0.78119
C          C       0.72086   0.96419   0.21881
C          C       0.77488   0.71034   0.95661
C          C       0.22512   0.28966   0.95661
C          C       0.22512   0.71034   0.04339
C          C       0.77488   0.28966   0.04339
C          C       0.95661   0.77488   0.71034
C          C       0.95661   0.22512   0.28966
C          C       0.04339   0.22512   0.71034
C          C       0.04339   0.77488   0.28966
C          C       0.71034   0.95661   0.77488
C          C       0.28966   0.95661   0.22512
C          C       0.71034   0.04339   0.22512
C          C       0.28966   0.04339   0.77488
C          C       0.22512   0.28966   0.04339
C          C       0.77488   0.71034   0.04339
C          C       0.77488   0.28966   0.95661
C          C       0.22512   0.71034   0.95661
C          C       0.04339   0.22512   0.28966
C          C       0.04339   0.77488   0.71034
C          C       0.95661   0.77488   0.28966
C          C       0.95661   0.22512   0.71034
C          C       0.28966   0.04339   0.22512
C          C       0.71034   0.04339   0.77488
C          C       0.28966   0.95661   0.77488
C          C       0.71034   0.95661   0.22512
C          C       0.78197   0.70389   0.94589
C          C       0.21803   0.29611   0.94589
C          C       0.21803   0.70389   0.05411
C          C       0.78197   0.29611   0.05411
C          C       0.94589   0.78197   0.70389
C          C       0.94589   0.21803   0.29611
C          C       0.05411   0.21803   0.70389
C          C       0.05411   0.78197   0.29611
C          C       0.70389   0.94589   0.78197
C          C       0.29611   0.94589   0.21803
C          C       0.70389   0.05411   0.21803
C          C       0.29611   0.05411   0.78197
C          C       0.21803   0.29611   0.05411
C          C       0.78197   0.70389   0.05411
C          C       0.78197   0.29611   0.94589
C          C       0.21803   0.70389   0.94589
C          C       0.05411   0.21803   0.29611
C          C       0.05411   0.78197   0.70389
C          C       0.94589   0.78197   0.29611
C          C       0.94589   0.21803   0.70389
C          C       0.29611   0.05411   0.21803
C          C       0.70389   0.05411   0.78197
C          C       0.29611   0.94589   0.78197
C          C       0.70389   0.94589   0.21803
C          C       0.79539   0.70791   0.94251
C          C       0.20461   0.29209   0.94251
C          C       0.20461   0.70791   0.05749
C          C       0.79539   0.29209   0.05749
C          C       0.94251   0.79539   0.70791
C          C       0.94251   0.20461   0.29209
C          C       0.05749   0.20461   0.70791
C          C       0.05749   0.79539   0.29209
C          C       0.70791   0.94251   0.79539
C          C       0.29209   0.94251   0.20461
C          C       0.70791   0.05749   0.20461
C          C       0.29209   0.05749   0.79539
C          C       0.20461   0.29209   0.05749
C          C       0.79539   0.70791   0.05749
C          C       0.79539   0.29209   0.94251
C          C       0.20461   0.70791   0.94251
C          C       0.05749   0.20461   0.29209
C          C       0.05749   0.79539   0.70791
C          C       0.94251   0.79539   0.29209
C          C       0.94251   0.20461   0.70791
C          C       0.29209   0.05749   0.20461
C          C       0.70791   0.05749   0.79539
C          C       0.29209   0.94251   0.79539
C          C       0.70791   0.94251   0.20461
C          C       0.80186   0.71825   0.95038
C          C       0.19814   0.28175   0.95038
C          C       0.19814   0.71825   0.04962
C          C       0.80186   0.28175   0.04962
C          C       0.95038   0.80186   0.71825
C          C       0.95038   0.19814   0.28175
C          C       0.04962   0.19814   0.71825
C          C       0.04962   0.80186   0.28175
C          C       0.71825   0.95038   0.80186
C          C       0.28175   0.95038   0.19814
C          C       0.71825   0.04962   0.19814
C          C       0.28175   0.04962   0.80186
C          C       0.19814   0.28175   0.04962
C          C       0.80186   0.71825   0.04962
C          C       0.80186   0.28175   0.95038
C          C       0.19814   0.71825   0.95038
C          C       0.04962   0.19814   0.28175
C          C       0.04962   0.80186   0.71825
C          C       0.95038   0.80186   0.28175
C          C       0.95038   0.19814   0.71825
C          C       0.28175   0.04962   0.19814
C          C       0.71825   0.04962   0.80186
C          C       0.28175   0.95038   0.80186
C          C       0.71825   0.95038   0.19814
C          C       0.79476   0.72469   0.96112
C          C       0.20524   0.27531   0.96112
C          C       0.20524   0.72469   0.03888
C          C       0.79476   0.27531   0.03888
C          C       0.96112   0.79476   0.72469
C          C       0.96112   0.20524   0.27531
C          C       0.03888   0.20524   0.72469
C          C       0.03888   0.79476   0.27531
C          C       0.72469   0.96112   0.79476
C          C       0.27531   0.96112   0.20524
C          C       0.72469   0.03888   0.20524
C          C       0.27531   0.03888   0.79476
C          C       0.20524   0.27531   0.03888
C          C       0.79476   0.72469   0.03888
C          C       0.79476   0.27531   0.96112
C          C       0.20524   0.72469   0.96112
C          C       0.03888   0.20524   0.27531
C          C       0.03888   0.79476   0.72469
C          C       0.96112   0.79476   0.27531
C          C       0.96112   0.20524   0.72469
C          C       0.27531   0.03888   0.20524
C          C       0.72469   0.03888   0.79476
C          C       0.27531   0.96112   0.79476
C          C       0.72469   0.96112   0.20524
N          N       0.80196   0.70125   0.93103
N          N       0.19804   0.29875   0.93103
N          N       0.19804   0.70125   0.06897
N          N       0.80196   0.29875   0.06897
N          N       0.93103   0.80196   0.70125
N          N       0.93103   0.19804   0.29875
N          N       0.06897   0.19804   0.70125
N          N       0.06897   0.80196   0.29875
N          N       0.70125   0.93103   0.80196
N          N       0.29875   0.93103   0.19804
N          N       0.70125   0.06897   0.19804
N          N       0.29875   0.06897   0.80196
N          N       0.19804   0.29875   0.06897
N          N       0.80196   0.70125   0.06897
N          N       0.80196   0.29875   0.93103
N          N       0.19804   0.70125   0.93103
N          N       0.06897   0.19804   0.29875
N          N       0.06897   0.80196   0.70125
N          N       0.93103   0.80196   0.29875
N          N       0.93103   0.19804   0.70125
N          N       0.29875   0.06897   0.19804
N          N       0.70125   0.06897   0.80196
N          N       0.29875   0.93103   0.80196
N          N       0.70125   0.93103   0.19804
C          C       0.81305   0.70530   0.92474
C          C       0.18695   0.29470   0.92474
C          C       0.18695   0.70530   0.07526
C          C       0.81305   0.29470   0.07526
C          C       0.92474   0.81305   0.70530
C          C       0.92474   0.18695   0.29470
C          C       0.07526   0.18695   0.70530
C          C       0.07526   0.81305   0.29470
C          C       0.70530   0.92474   0.81305
C          C       0.29470   0.92474   0.18695
C          C       0.70530   0.07526   0.18695
C          C       0.29470   0.07526   0.81305
C          C       0.18695   0.29470   0.07526
C          C       0.81305   0.70530   0.07526
C          C       0.81305   0.29470   0.92474
C          C       0.18695   0.70530   0.92474
C          C       0.07526   0.18695   0.29470
C          C       0.07526   0.81305   0.70530
C          C       0.92474   0.81305   0.29470
C          C       0.92474   0.18695   0.70530
C          C       0.29470   0.07526   0.18695
C          C       0.70530   0.07526   0.81305
C          C       0.29470   0.92474   0.81305
C          C       0.70530   0.92474   0.18695
C          C       0.81840   0.69763   0.91275
C          C       0.18160   0.30237   0.91275
C          C       0.18160   0.69763   0.08725
C          C       0.81840   0.30237   0.08725
C          C       0.91275   0.81840   0.69763
C          C       0.91275   0.18160   0.30237
C          C       0.08725   0.18160   0.69763
C          C       0.08725   0.81840   0.30237
C          C       0.69763   0.91275   0.81840
C          C       0.30237   0.91275   0.18160
C          C       0.69763   0.08725   0.18160
C          C       0.30237   0.08725   0.81840
C          C       0.18160   0.30237   0.08725
C          C       0.81840   0.69763   0.08725
C          C       0.81840   0.30237   0.91275
C          C       0.18160   0.69763   0.91275
C          C       0.08725   0.18160   0.30237
C          C       0.08725   0.81840   0.69763
C          C       0.91275   0.81840   0.30237
C          C       0.91275   0.18160   0.69763
C          C       0.30237   0.08725   0.18160
C          C       0.69763   0.08725   0.81840
C          C       0.30237   0.91275   0.81840
C          C       0.69763   0.91275   0.18160
C          C       0.82989   0.70272   0.90563
C          C       0.17011   0.29728   0.90563
C          C       0.17011   0.70272   0.09437
C          C       0.82989   0.29728   0.09437
C          C       0.90563   0.82989   0.70272
C          C       0.90563   0.17011   0.29728
C          C       0.09437   0.17011   0.70272
C          C       0.09437   0.82989   0.29728
C          C       0.70272   0.90563   0.82989
C          C       0.29728   0.90563   0.17011
C          C       0.70272   0.09437   0.17011
C          C       0.29728   0.09437   0.82989
C          C       0.17011   0.29728   0.09437
C          C       0.82989   0.70272   0.09437
C          C       0.82989   0.29728   0.90563
C          C       0.17011   0.70272   0.90563
C          C       0.09437   0.17011   0.29728
C          C       0.09437   0.82989   0.70272
C          C       0.90563   0.82989   0.29728
C          C       0.90563   0.17011   0.70272
C          C       0.29728   0.09437   0.17011
C          C       0.70272   0.09437   0.82989
C          C       0.29728   0.90563   0.82989
C          C       0.70272   0.90563   0.17011
C          C       0.83487   0.69588   0.89399
C          C       0.16513   0.30412   0.89399
C          C       0.16513   0.69588   0.10601
C          C       0.83487   0.30412   0.10601
C          C       0.89399   0.83487   0.69588
C          C       0.89399   0.16513   0.30412
C          C       0.10601   0.16513   0.69588
C          C       0.10601   0.83487   0.30412
C          C       0.69588   0.89399   0.83487
C          C       0.30412   0.89399   0.16513
C          C       0.69588   0.10601   0.16513
C          C       0.30412   0.10601   0.83487
C          C       0.16513   0.30412   0.10601
C          C       0.83487   0.69588   0.10601
C          C       0.83487   0.30412   0.89399
C          C       0.16513   0.69588   0.89399
C          C       0.10601   0.16513   0.30412
C          C       0.10601   0.83487   0.69588
C          C       0.89399   0.83487   0.30412
C          C       0.89399   0.16513   0.69588
C          C       0.30412   0.10601   0.16513
C          C       0.69588   0.10601   0.83487
C          C       0.30412   0.89399   0.83487
C          C       0.69588   0.89399   0.16513
C          C       0.82848   0.68380   0.88926
C          C       0.17152   0.31620   0.88926
C          C       0.17152   0.68380   0.11074
C          C       0.82848   0.31620   0.11074
C          C       0.88926   0.82848   0.68380
C          C       0.88926   0.17152   0.31620
C          C       0.11074   0.17152   0.68380
C          C       0.11074   0.82848   0.31620
C          C       0.68380   0.88926   0.82848
C          C       0.31620   0.88926   0.17152
C          C       0.68380   0.11074   0.17152
C          C       0.31620   0.11074   0.82848
C          C       0.17152   0.31620   0.11074
C          C       0.82848   0.68380   0.11074
C          C       0.82848   0.31620   0.88926
C          C       0.17152   0.68380   0.88926
C          C       0.11074   0.17152   0.31620
C          C       0.11074   0.82848   0.68380
C          C       0.88926   0.82848   0.31620
C          C       0.88926   0.17152   0.68380
C          C       0.31620   0.11074   0.17152
C          C       0.68380   0.11074   0.82848
C          C       0.31620   0.88926   0.82848
C          C       0.68380   0.88926   0.17152
C          C       0.81708   0.67862   0.89651
C          C       0.18292   0.32138   0.89651
C          C       0.18292   0.67862   0.10349
C          C       0.81708   0.32138   0.10349
C          C       0.89651   0.81708   0.67862
C          C       0.89651   0.18292   0.32138
C          C       0.10349   0.18292   0.67862
C          C       0.10349   0.81708   0.32138
C          C       0.67862   0.89651   0.81708
C          C       0.32138   0.89651   0.18292
C          C       0.67862   0.10349   0.18292
C          C       0.32138   0.10349   0.81708
C          C       0.18292   0.32138   0.10349
C          C       0.81708   0.67862   0.10349
C          C       0.81708   0.32138   0.89651
C          C       0.18292   0.67862   0.89651
C          C       0.10349   0.18292   0.32138
C          C       0.10349   0.81708   0.67862
C          C       0.89651   0.81708   0.32138
C          C       0.89651   0.18292   0.67862
C          C       0.32138   0.10349   0.18292
C          C       0.67862   0.10349   0.81708
C          C       0.32138   0.89651   0.81708
C          C       0.67862   0.89651   0.18292
C          C       0.81208   0.68547   0.90813
C          C       0.18792   0.31453   0.90813
C          C       0.18792   0.68547   0.09187
C          C       0.81208   0.31453   0.09187
C          C       0.90813   0.81208   0.68547
C          C       0.90813   0.18792   0.31453
C          C       0.09187   0.18792   0.68547
C          C       0.09187   0.81208   0.31453
C          C       0.68547   0.90813   0.81208
C          C       0.31453   0.90813   0.18792
C          C       0.68547   0.09187   0.18792
C          C       0.31453   0.09187   0.81208
C          C       0.18792   0.31453   0.09187
C          C       0.81208   0.68547   0.09187
C          C       0.81208   0.31453   0.90813
C          C       0.18792   0.68547   0.90813
C          C       0.09187   0.18792   0.31453
C          C       0.09187   0.81208   0.68547
C          C       0.90813   0.81208   0.31453
C          C       0.90813   0.18792   0.68547
C          C       0.31453   0.09187   0.18792
C          C       0.68547   0.09187   0.81208
C          C       0.31453   0.90813   0.81208
C          C       0.68547   0.90813   0.18792
C          C       0.83354   0.67673   0.87668
C          C       0.16646   0.32327   0.87668
C          C       0.16646   0.67673   0.12332
C          C       0.83354   0.32327   0.12332
C          C       0.87668   0.83354   0.67673
C          C       0.87668   0.16646   0.32327
C          C       0.12332   0.16646   0.67673
C          C       0.12332   0.83354   0.32327
C          C       0.67673   0.87668   0.83354
C          C       0.32327   0.87668   0.16646
C          C       0.67673   0.12332   0.16646
C          C       0.32327   0.12332   0.83354
C          C       0.16646   0.32327   0.12332
C          C       0.83354   0.67673   0.12332
C          C       0.83354   0.32327   0.87668
C          C       0.16646   0.67673   0.87668
C          C       0.12332   0.16646   0.32327
C          C       0.12332   0.83354   0.67673
C          C       0.87668   0.83354   0.32327
C          C       0.87668   0.16646   0.67673
C          C       0.32327   0.12332   0.16646
C          C       0.67673   0.12332   0.83354
C          C       0.32327   0.87668   0.83354
C          C       0.67673   0.87668   0.16646
C          C       0.83754   0.68439   0.86508
C          C       0.16246   0.31561   0.86508
C          C       0.16246   0.68439   0.13492
C          C       0.83754   0.31561   0.13492
C          C       0.86508   0.83754   0.68439
C          C       0.86508   0.16246   0.31561
C          C       0.13492   0.16246   0.68439
C          C       0.13492   0.83754   0.31561
C          C       0.68439   0.86508   0.83754
C          C       0.31561   0.86508   0.16246
C          C       0.68439   0.13492   0.16246
C          C       0.31561   0.13492   0.83754
C          C       0.16246   0.31561   0.13492
C          C       0.83754   0.68439   0.13492
C          C       0.83754   0.31561   0.86508
C          C       0.16246   0.68439   0.86508
C          C       0.13492   0.16246   0.31561
C          C       0.13492   0.83754   0.68439
C          C       0.86508   0.83754   0.31561
C          C       0.86508   0.16246   0.68439
C          C       0.31561   0.13492   0.16246
C          C       0.68439   0.13492   0.83754
C          C       0.31561   0.86508   0.83754
C          C       0.68439   0.86508   0.16246
C          C       0.84205   0.67776   0.85315
C          C       0.15795   0.32224   0.85315
C          C       0.15795   0.67776   0.14685
C          C       0.84205   0.32224   0.14685
C          C       0.85315   0.84205   0.67776
C          C       0.85315   0.15795   0.32224
C          C       0.14685   0.15795   0.67776
C          C       0.14685   0.84205   0.32224
C          C       0.67776   0.85315   0.84205
C          C       0.32224   0.85315   0.15795
C          C       0.67776   0.14685   0.15795
C          C       0.32224   0.14685   0.84205
C          C       0.15795   0.32224   0.14685
C          C       0.84205   0.67776   0.14685
C          C       0.84205   0.32224   0.85315
C          C       0.15795   0.67776   0.85315
C          C       0.14685   0.15795   0.32224
C          C       0.14685   0.84205   0.67776
C          C       0.85315   0.84205   0.32224
C          C       0.85315   0.15795   0.67776
C          C       0.32224   0.14685   0.15795
C          C       0.67776   0.14685   0.84205
C          C       0.32224   0.85315   0.84205
C          C       0.67776   0.85315   0.15795
C          C       0.84269   0.66333   0.85257
C          C       0.15731   0.33667   0.85257
C          C       0.15731   0.66333   0.14743
C          C       0.84269   0.33667   0.14743
C          C       0.85257   0.84269   0.66333
C          C       0.85257   0.15731   0.33667
C          C       0.14743   0.15731   0.66333
C          C       0.14743   0.84269   0.33667
C          C       0.66333   0.85257   0.84269
C          C       0.33667   0.85257   0.15731
C          C       0.66333   0.14743   0.15731
C          C       0.33667   0.14743   0.84269
C          C       0.15731   0.33667   0.14743
C          C       0.84269   0.66333   0.14743
C          C       0.84269   0.33667   0.85257
C          C       0.15731   0.66333   0.85257
C          C       0.14743   0.15731   0.33667
C          C       0.14743   0.84269   0.66333
C          C       0.85257   0.84269   0.33667
C          C       0.85257   0.15731   0.66333
C          C       0.33667   0.14743   0.15731
C          C       0.66333   0.14743   0.84269
C          C       0.33667   0.85257   0.84269
C          C       0.66333   0.85257   0.15731
C          C       0.83877   0.65566   0.86418
C          C       0.16123   0.34434   0.86418
C          C       0.16123   0.65566   0.13582
C          C       0.83877   0.34434   0.13582
C          C       0.86418   0.83877   0.65566
C          C       0.86418   0.16123   0.34434
C          C       0.13582   0.16123   0.65566
C          C       0.13582   0.83877   0.34434
C          C       0.65566   0.86418   0.83877
C          C       0.34434   0.86418   0.16123
C          C       0.65566   0.13582   0.16123
C          C       0.34434   0.13582   0.83877
C          C       0.16123   0.34434   0.13582
C          C       0.83877   0.65566   0.13582
C          C       0.83877   0.34434   0.86418
C          C       0.16123   0.65566   0.86418
C          C       0.13582   0.16123   0.34434
C          C       0.13582   0.83877   0.65566
C          C       0.86418   0.83877   0.34434
C          C       0.86418   0.16123   0.65566
C          C       0.34434   0.13582   0.16123
C          C       0.65566   0.13582   0.83877
C          C       0.34434   0.86418   0.83877
C          C       0.65566   0.86418   0.16123
C          C       0.83423   0.66229   0.87611
C          C       0.16577   0.33771   0.87611
C          C       0.16577   0.66229   0.12389
C          C       0.83423   0.33771   0.12389
C          C       0.87611   0.83423   0.66229
C          C       0.87611   0.16577   0.33771
C          C       0.12389   0.16577   0.66229
C          C       0.12389   0.83423   0.33771
C          C       0.66229   0.87611   0.83423
C          C       0.33771   0.87611   0.16577
C          C       0.66229   0.12389   0.16577
C          C       0.33771   0.12389   0.83423
C          C       0.16577   0.33771   0.12389
C          C       0.83423   0.66229   0.12389
C          C       0.83423   0.33771   0.87611
C          C       0.16577   0.66229   0.87611
C          C       0.12389   0.16577   0.33771
C          C       0.12389   0.83423   0.66229
C          C       0.87611   0.83423   0.33771
C          C       0.87611   0.16577   0.66229
C          C       0.33771   0.12389   0.16577
C          C       0.66229   0.12389   0.83423
C          C       0.33771   0.87611   0.83423
C          C       0.66229   0.87611   0.16577
C          C       0.25316   0.45733   0.74316
C          C       0.74684   0.54267   0.74316
C          C       0.74684   0.45733   0.25684
C          C       0.25316   0.54267   0.25684
C          C       0.74316   0.25316   0.45733
C          C       0.74316   0.74684   0.54267
C          C       0.25684   0.74684   0.45733
C          C       0.25684   0.25316   0.54267
C          C       0.45733   0.74316   0.25316
C          C       0.54267   0.74316   0.74684
C          C       0.45733   0.25684   0.74684
C          C       0.54267   0.25684   0.25316
C          C       0.74684   0.54267   0.25684
C          C       0.25316   0.45733   0.25684
C          C       0.25316   0.54267   0.74316
C          C       0.74684   0.45733   0.74316
C          C       0.25684   0.74684   0.54267
C          C       0.25684   0.25316   0.45733
C          C       0.74316   0.25316   0.54267
C          C       0.74316   0.74684   0.45733
C          C       0.54267   0.25684   0.74684
C          C       0.45733   0.25684   0.25316
C          C       0.54267   0.74316   0.25316
C          C       0.45733   0.74316   0.74684
C          C       0.25480   0.47089   0.73906
C          C       0.74520   0.52911   0.73906
C          C       0.74520   0.47089   0.26094
C          C       0.25480   0.52911   0.26094
C          C       0.73906   0.25480   0.47089
C          C       0.73906   0.74520   0.52911
C          C       0.26094   0.74520   0.47089
C          C       0.26094   0.25480   0.52911
C          C       0.47089   0.73906   0.25480
C          C       0.52911   0.73906   0.74520
C          C       0.47089   0.26094   0.74520
C          C       0.52911   0.26094   0.25480
C          C       0.74520   0.52911   0.26094
C          C       0.25480   0.47089   0.26094
C          C       0.25480   0.52911   0.73906
C          C       0.74520   0.47089   0.73906
C          C       0.26094   0.74520   0.52911
C          C       0.26094   0.25480   0.47089
C          C       0.73906   0.25480   0.52911
C          C       0.73906   0.74520   0.47089
C          C       0.52911   0.26094   0.74520
C          C       0.47089   0.26094   0.25480
C          C       0.52911   0.73906   0.25480
C          C       0.47089   0.73906   0.74520
N          N       0.24635   0.47930   0.74632
N          N       0.75365   0.52070   0.74632
N          N       0.75365   0.47930   0.25368
N          N       0.24635   0.52070   0.25368
N          N       0.74632   0.24635   0.47930
N          N       0.74632   0.75365   0.52070
N          N       0.25368   0.75365   0.47930
N          N       0.25368   0.24635   0.52070
N          N       0.47930   0.74632   0.24635
N          N       0.52070   0.74632   0.75365
N          N       0.47930   0.25368   0.75365
N          N       0.52070   0.25368   0.24635
N          N       0.75365   0.52070   0.25368
N          N       0.24635   0.47930   0.25368
N          N       0.24635   0.52070   0.74632
N          N       0.75365   0.47930   0.74632
N          N       0.25368   0.75365   0.52070
N          N       0.25368   0.24635   0.47930
N          N       0.74632   0.24635   0.52070
N          N       0.74632   0.75365   0.47930
N          N       0.52070   0.25368   0.75365
N          N       0.47930   0.25368   0.24635
N          N       0.52070   0.74632   0.24635
N          N       0.47930   0.74632   0.75365
C          C       0.23928   0.47089   0.75492
C          C       0.76072   0.52911   0.75492
C          C       0.76072   0.47089   0.24508
C          C       0.23928   0.52911   0.24508
C          C       0.75492   0.23928   0.47089
C          C       0.75492   0.76072   0.52911
C          C       0.24508   0.76072   0.47089
C          C       0.24508   0.23928   0.52911
C          C       0.47089   0.75492   0.23928
C          C       0.52911   0.75492   0.76072
C          C       0.47089   0.24508   0.76072
C          C       0.52911   0.24508   0.23928
C          C       0.76072   0.52911   0.24508
C          C       0.23928   0.47089   0.24508
C          C       0.23928   0.52911   0.75492
C          C       0.76072   0.47089   0.75492
C          C       0.24508   0.76072   0.52911
C          C       0.24508   0.23928   0.47089
C          C       0.75492   0.23928   0.52911
C          C       0.75492   0.76072   0.47089
C          C       0.52911   0.24508   0.76072
C          C       0.47089   0.24508   0.23928
C          C       0.52911   0.75492   0.23928
C          C       0.47089   0.75492   0.76072
C          C       0.24334   0.45733   0.75319
C          C       0.75666   0.54267   0.75319
C          C       0.75666   0.45733   0.24681
C          C       0.24334   0.54267   0.24681
C          C       0.75319   0.24334   0.45733
C          C       0.75319   0.75666   0.54267
C          C       0.24681   0.75666   0.45733
C          C       0.24681   0.24334   0.54267
C          C       0.45733   0.75319   0.24334
C          C       0.54267   0.75319   0.75666
C          C       0.45733   0.24681   0.75666
C          C       0.54267   0.24681   0.24334
C          C       0.75666   0.54267   0.24681
C          C       0.24334   0.45733   0.24681
C          C       0.24334   0.54267   0.75319
C          C       0.75666   0.45733   0.75319
C          C       0.24681   0.75666   0.54267
C          C       0.24681   0.24334   0.45733
C          C       0.75319   0.24334   0.54267
C          C       0.75319   0.75666   0.45733
C          C       0.54267   0.24681   0.75666
C          C       0.45733   0.24681   0.24334
C          C       0.54267   0.75319   0.24334
C          C       0.45733   0.75319   0.75666
C          C       0.22891   0.47507   0.76416
C          C       0.77109   0.52493   0.76416
C          C       0.77109   0.47507   0.23584
C          C       0.22891   0.52493   0.23584
C          C       0.76416   0.22891   0.47507
C          C       0.76416   0.77109   0.52493
C          C       0.23584   0.77109   0.47507
C          C       0.23584   0.22891   0.52493
C          C       0.47507   0.76416   0.22891
C          C       0.52493   0.76416   0.77109
C          C       0.47507   0.23584   0.77109
C          C       0.52493   0.23584   0.22891
C          C       0.77109   0.52493   0.23584
C          C       0.22891   0.47507   0.23584
C          C       0.22891   0.52493   0.76416
C          C       0.77109   0.47507   0.76416
C          C       0.23584   0.77109   0.52493
C          C       0.23584   0.22891   0.47507
C          C       0.76416   0.22891   0.52493
C          C       0.76416   0.77109   0.47507
C          C       0.52493   0.23584   0.77109
C          C       0.47507   0.23584   0.22891
C          C       0.52493   0.76416   0.22891
C          C       0.47507   0.76416   0.77109
C          C       0.22531   0.48891   0.76654
C          C       0.77469   0.51109   0.76654
C          C       0.77469   0.48891   0.23346
C          C       0.22531   0.51109   0.23346
C          C       0.76654   0.22531   0.48891
C          C       0.76654   0.77469   0.51109
C          C       0.23346   0.77469   0.48891
C          C       0.23346   0.22531   0.51109
C          C       0.48891   0.76654   0.22531
C          C       0.51109   0.76654   0.77469
C          C       0.48891   0.23346   0.77469
C          C       0.51109   0.23346   0.22531
C          C       0.77469   0.51109   0.23346
C          C       0.22531   0.48891   0.23346
C          C       0.22531   0.51109   0.76654
C          C       0.77469   0.48891   0.76654
C          C       0.23346   0.77469   0.51109
C          C       0.23346   0.22531   0.48891
C          C       0.76654   0.22531   0.51109
C          C       0.76654   0.77469   0.48891
C          C       0.51109   0.23346   0.77469
C          C       0.48891   0.23346   0.22531
C          C       0.51109   0.76654   0.22531
C          C       0.48891   0.76654   0.77469
C          C       0.21467   0.50702   0.77512
C          C       0.78533   0.49298   0.77512
C          C       0.78533   0.50702   0.22488
C          C       0.21467   0.49298   0.22488
C          C       0.77512   0.21467   0.50702
C          C       0.77512   0.78533   0.49298
C          C       0.22488   0.78533   0.50702
C          C       0.22488   0.21467   0.49298
C          C       0.50702   0.77512   0.21467
C          C       0.49298   0.77512   0.78533
C          C       0.50702   0.22488   0.78533
C          C       0.49298   0.22488   0.21467
C          C       0.78533   0.49298   0.22488
C          C       0.21467   0.50702   0.22488
C          C       0.21467   0.49298   0.77512
C          C       0.78533   0.50702   0.77512
C          C       0.22488   0.78533   0.49298
C          C       0.22488   0.21467   0.50702
C          C       0.77512   0.21467   0.49298
C          C       0.77512   0.78533   0.50702
C          C       0.49298   0.22488   0.78533
C          C       0.50702   0.22488   0.21467
C          C       0.49298   0.77512   0.21467
C          C       0.50702   0.77512   0.78533
C          C       0.26381   0.47507   0.72848
C          C       0.73619   0.52493   0.72848
C          C       0.73619   0.47507   0.27152
C          C       0.26381   0.52493   0.27152
C          C       0.72848   0.26381   0.47507
C          C       0.72848   0.73619   0.52493
C          C       0.27152   0.73619   0.47507
C          C       0.27152   0.26381   0.52493
C          C       0.47507   0.72848   0.26381
C          C       0.52493   0.72848   0.73619
C          C       0.47507   0.27152   0.73619
C          C       0.52493   0.27152   0.26381
C          C       0.73619   0.52493   0.27152
C          C       0.26381   0.47507   0.27152
C          C       0.26381   0.52493   0.72848
C          C       0.73619   0.47507   0.72848
C          C       0.27152   0.73619   0.52493
C          C       0.27152   0.26381   0.47507
C          C       0.72848   0.26381   0.52493
C          C       0.72848   0.73619   0.47507
C          C       0.52493   0.27152   0.73619
C          C       0.47507   0.27152   0.26381
C          C       0.52493   0.72848   0.26381
C          C       0.47507   0.72848   0.73619
C          C       0.26611   0.48891   0.72483
C          C       0.73389   0.51109   0.72483
C          C       0.73389   0.48891   0.27517
C          C       0.26611   0.51109   0.27517
C          C       0.72483   0.26611   0.48891
C          C       0.72483   0.73389   0.51109
C          C       0.27517   0.73389   0.48891
C          C       0.27517   0.26611   0.51109
C          C       0.48891   0.72483   0.26611
C          C       0.51109   0.72483   0.73389
C          C       0.48891   0.27517   0.73389
C          C       0.51109   0.27517   0.26611
C          C       0.73389   0.51109   0.27517
C          C       0.26611   0.48891   0.27517
C          C       0.26611   0.51109   0.72483
C          C       0.73389   0.48891   0.72483
C          C       0.27517   0.73389   0.51109
C          C       0.27517   0.26611   0.48891
C          C       0.72483   0.26611   0.51109
C          C       0.72483   0.73389   0.48891
C          C       0.51109   0.27517   0.73389
C          C       0.48891   0.27517   0.26611
C          C       0.51109   0.72483   0.26611
C          C       0.48891   0.72483   0.73389
C          C       0.27449   0.49298   0.71403
C          C       0.72551   0.50702   0.71403
C          C       0.72551   0.49298   0.28597
C          C       0.27449   0.50702   0.28597
C          C       0.71403   0.27449   0.49298
C          C       0.71403   0.72551   0.50702
C          C       0.28597   0.72551   0.49298
C          C       0.28597   0.27449   0.50702
C          C       0.49298   0.71403   0.27449
C          C       0.50702   0.71403   0.72551
C          C       0.49298   0.28597   0.72551
C          C       0.50702   0.28597   0.27449
C          C       0.72551   0.50702   0.28597
C          C       0.27449   0.49298   0.28597
C          C       0.27449   0.50702   0.71403
C          C       0.72551   0.49298   0.71403
C          C       0.28597   0.72551   0.50702
C          C       0.28597   0.27449   0.49298
C          C       0.71403   0.27449   0.50702
C          C       0.71403   0.72551   0.49298
C          C       0.50702   0.28597   0.72551
C          C       0.49298   0.28597   0.27449
C          C       0.50702   0.71403   0.27449
C          C       0.49298   0.71403   0.72551
C          C       0.74206   0.04270   0.23828
C          C       0.25794   0.95730   0.23828
C          C       0.25794   0.04270   0.76172
C          C       0.74206   0.95730   0.76172
C          C       0.23828   0.74206   0.04270
C          C       0.23828   0.25794   0.95730
C          C       0.76172   0.25794   0.04270
C          C       0.76172   0.74206   0.95730
C          C       0.04270   0.23828   0.74206
C          C       0.95730   0.23828   0.25794
C          C       0.04270   0.76172   0.25794
C          C       0.95730   0.76172   0.74206
C          C       0.25794   0.95730   0.76172
C          C       0.74206   0.04270   0.76172
C          C       0.74206   0.95730   0.23828
C          C       0.25794   0.04270   0.23828
C          C       0.76172   0.25794   0.95730
C          C       0.76172   0.74206   0.04270
C          C       0.23828   0.74206   0.95730
C          C       0.23828   0.25794   0.04270
C          C       0.95730   0.76172   0.25794
C          C       0.04270   0.76172   0.74206
C          C       0.95730   0.23828   0.74206
C          C       0.04270   0.23828   0.25794
C          C       0.73819   0.02912   0.23629
C          C       0.26181   0.97088   0.23629
C          C       0.26181   0.02912   0.76371
C          C       0.73819   0.97088   0.76371
C          C       0.23629   0.73819   0.02912
C          C       0.23629   0.26181   0.97088
C          C       0.76371   0.26181   0.02912
C          C       0.76371   0.73819   0.97088
C          C       0.02912   0.23629   0.73819
C          C       0.97088   0.23629   0.26181
C          C       0.02912   0.76371   0.26181
C          C       0.97088   0.76371   0.73819
C          C       0.26181   0.97088   0.76371
C          C       0.73819   0.02912   0.76371
C          C       0.73819   0.97088   0.23629
C          C       0.26181   0.02912   0.23629
C          C       0.76371   0.26181   0.97088
C          C       0.76371   0.73819   0.02912
C          C       0.23629   0.73819   0.97088
C          C       0.23629   0.26181   0.02912
C          C       0.97088   0.76371   0.26181
C          C       0.02912   0.76371   0.73819
C          C       0.97088   0.23629   0.73819
C          C       0.02912   0.23629   0.26181
N          N       0.74500   0.02070   0.24509
N          N       0.25500   0.97930   0.24509
N          N       0.25500   0.02070   0.75491
N          N       0.74500   0.97930   0.75491
N          N       0.24509   0.74500   0.02070
N          N       0.24509   0.25500   0.97930
N          N       0.75491   0.25500   0.02070
N          N       0.75491   0.74500   0.97930
N          N       0.02070   0.24509   0.74500
N          N       0.97930   0.24509   0.25500
N          N       0.02070   0.75491   0.25500
N          N       0.97930   0.75491   0.74500
N          N       0.25500   0.97930   0.75491
N          N       0.74500   0.02070   0.75491
N          N       0.74500   0.97930   0.24509
N          N       0.25500   0.02070   0.24509
N          N       0.75491   0.25500   0.97930
N          N       0.75491   0.74500   0.02070
N          N       0.24509   0.74500   0.97930
N          N       0.24509   0.25500   0.02070
N          N       0.97930   0.75491   0.25500
N          N       0.02070   0.75491   0.74500
N          N       0.97930   0.24509   0.74500
N          N       0.02070   0.24509   0.25500
C          C       0.75309   0.02912   0.25273
C          C       0.24691   0.97088   0.25273
C          C       0.24691   0.02912   0.74727
C          C       0.75309   0.97088   0.74727
C          C       0.25273   0.75309   0.02912
C          C       0.25273   0.24691   0.97088
C          C       0.74727   0.24691   0.02912
C          C       0.74727   0.75309   0.97088
C          C       0.02912   0.25273   0.75309
C          C       0.97088   0.25273   0.24691
C          C       0.02912   0.74727   0.24691
C          C       0.97088   0.74727   0.75309
C          C       0.24691   0.97088   0.74727
C          C       0.75309   0.02912   0.74727
C          C       0.75309   0.97088   0.25273
C          C       0.24691   0.02912   0.25273
C          C       0.74727   0.24691   0.97088
C          C       0.74727   0.75309   0.02912
C          C       0.25273   0.75309   0.97088
C          C       0.25273   0.24691   0.02912
C          C       0.97088   0.74727   0.24691
C          C       0.02912   0.74727   0.75309
C          C       0.97088   0.25273   0.75309
C          C       0.02912   0.25273   0.24691
C          C       0.75149   0.04270   0.24868
C          C       0.24851   0.95730   0.24868
C          C       0.24851   0.04270   0.75132
C          C       0.75149   0.95730   0.75132
C          C       0.24868   0.75149   0.04270
C          C       0.24868   0.24851   0.95730
C          C       0.75132   0.24851   0.04270
C          C       0.75132   0.75149   0.95730
C          C       0.04270   0.24868   0.75149
C          C       0.95730   0.24868   0.24851
C          C       0.04270   0.75132   0.24851
C          C       0.95730   0.75132   0.75149
C          C       0.24851   0.95730   0.75132
C          C       0.75149   0.04270   0.75132
C          C       0.75149   0.95730   0.24868
C          C       0.24851   0.04270   0.24868
C          C       0.75132   0.24851   0.95730
C          C       0.75132   0.75149   0.04270
C          C       0.24868   0.75149   0.95730
C          C       0.24868   0.24851   0.04270
C          C       0.95730   0.75132   0.24851
C          C       0.04270   0.75132   0.75149
C          C       0.95730   0.24868   0.75149
C          C       0.04270   0.24868   0.24851
C          C       0.76173   0.02494   0.26360
C          C       0.23827   0.97506   0.26360
C          C       0.23827   0.02494   0.73640
C          C       0.76173   0.97506   0.73640
C          C       0.26360   0.76173   0.02494
C          C       0.26360   0.23827   0.97506
C          C       0.73640   0.23827   0.02494
C          C       0.73640   0.76173   0.97506
C          C       0.02494   0.26360   0.76173
C          C       0.97506   0.26360   0.23827
C          C       0.02494   0.73640   0.23827
C          C       0.97506   0.73640   0.76173
C          C       0.23827   0.97506   0.73640
C          C       0.76173   0.02494   0.73640
C          C       0.76173   0.97506   0.26360
C          C       0.23827   0.02494   0.26360
C          C       0.73640   0.23827   0.97506
C          C       0.73640   0.76173   0.02494
C          C       0.26360   0.76173   0.97506
C          C       0.26360   0.23827   0.02494
C          C       0.97506   0.73640   0.23827
C          C       0.02494   0.73640   0.76173
C          C       0.97506   0.26360   0.76173
C          C       0.02494   0.26360   0.23827
C          C       0.76394   0.01109   0.26729
C          C       0.23606   0.98891   0.26729
C          C       0.23606   0.01109   0.73271
C          C       0.76394   0.98891   0.73271
C          C       0.26729   0.76394   0.01109
C          C       0.26729   0.23606   0.98891
C          C       0.73271   0.23606   0.01109
C          C       0.73271   0.76394   0.98891
C          C       0.01109   0.26729   0.76394
C          C       0.98891   0.26729   0.23606
C          C       0.01109   0.73271   0.23606
C          C       0.98891   0.73271   0.76394
C          C       0.23606   0.98891   0.73271
C          C       0.76394   0.01109   0.73271
C          C       0.76394   0.98891   0.26729
C          C       0.23606   0.01109   0.26729
C          C       0.73271   0.23606   0.98891
C          C       0.73271   0.76394   0.01109
C          C       0.26729   0.76394   0.98891
C          C       0.26729   0.23606   0.01109
C          C       0.98891   0.73271   0.23606
C          C       0.01109   0.73271   0.76394
C          C       0.98891   0.26729   0.76394
C          C       0.01109   0.26729   0.23606
C          C       0.77194   0.99298   0.27838
C          C       0.22806   0.00702   0.27838
C          C       0.22806   0.99298   0.72162
C          C       0.77194   0.00702   0.72162
C          C       0.27838   0.77194   0.99298
C          C       0.27838   0.22806   0.00702
C          C       0.72162   0.22806   0.99298
C          C       0.72162   0.77194   0.00702
C          C       0.99298   0.27838   0.77194
C          C       0.00702   0.27838   0.22806
C          C       0.99298   0.72162   0.22806
C          C       0.00702   0.72162   0.77194
C          C       0.22806   0.00702   0.72162
C          C       0.77194   0.99298   0.72162
C          C       0.77194   0.00702   0.27838
C          C       0.22806   0.99298   0.27838
C          C       0.72162   0.22806   0.00702
C          C       0.72162   0.77194   0.99298
C          C       0.27838   0.77194   0.00702
C          C       0.27838   0.22806   0.99298
C          C       0.00702   0.72162   0.22806
C          C       0.99298   0.72162   0.77194
C          C       0.00702   0.27838   0.77194
C          C       0.99298   0.27838   0.22806
C          C       0.72821   0.02494   0.22662
C          C       0.27179   0.97506   0.22662
C          C       0.27179   0.02494   0.77338
C          C       0.72821   0.97506   0.77338
C          C       0.22662   0.72821   0.02494
C          C       0.22662   0.27179   0.97506
C          C       0.77338   0.27179   0.02494
C          C       0.77338   0.72821   0.97506
C          C       0.02494   0.22662   0.72821
C          C       0.97506   0.22662   0.27179
C          C       0.02494   0.77338   0.27179
C          C       0.97506   0.77338   0.72821
C          C       0.27179   0.97506   0.77338
C          C       0.72821   0.02494   0.77338
C          C       0.72821   0.97506   0.22662
C          C       0.27179   0.02494   0.22662
C          C       0.77338   0.27179   0.97506
C          C       0.77338   0.72821   0.02494
C          C       0.22662   0.72821   0.97506
C          C       0.22662   0.27179   0.02494
C          C       0.97506   0.77338   0.27179
C          C       0.02494   0.77338   0.72821
C          C       0.97506   0.22662   0.72821
C          C       0.02494   0.22662   0.27179
C          C       0.72478   0.01109   0.22401
C          C       0.27522   0.98891   0.22401
C          C       0.27522   0.01109   0.77599
C          C       0.72478   0.98891   0.77599
C          C       0.22401   0.72478   0.01109
C          C       0.22401   0.27522   0.98891
C          C       0.77599   0.27522   0.01109
C          C       0.77599   0.72478   0.98891
C          C       0.01109   0.22401   0.72478
C          C       0.98891   0.22401   0.27522
C          C       0.01109   0.77599   0.27522
C          C       0.98891   0.77599   0.72478
C          C       0.27522   0.98891   0.77599
C          C       0.72478   0.01109   0.77599
C          C       0.72478   0.98891   0.22401
C          C       0.27522   0.01109   0.22401
C          C       0.77599   0.27522   0.98891
C          C       0.77599   0.72478   0.01109
C          C       0.22401   0.72478   0.98891
C          C       0.22401   0.27522   0.01109
C          C       0.98891   0.77599   0.27522
C          C       0.01109   0.77599   0.72478
C          C       0.98891   0.22401   0.72478
C          C       0.01109   0.22401   0.27522
C          C       0.71459   0.00702   0.21491
C          C       0.28541   0.99298   0.21491
C          C       0.28541   0.00702   0.78509
C          C       0.71459   0.99298   0.78509
C          C       0.21491   0.71459   0.00702
C          C       0.21491   0.28541   0.99298
C          C       0.78509   0.28541   0.00702
C          C       0.78509   0.71459   0.99298
C          C       0.00702   0.21491   0.71459
C          C       0.99298   0.21491   0.28541
C          C       0.00702   0.78509   0.28541
C          C       0.99298   0.78509   0.71459
C          C       0.28541   0.99298   0.78509
C          C       0.71459   0.00702   0.78509
C          C       0.71459   0.99298   0.21491
C          C       0.28541   0.00702   0.21491
C          C       0.78509   0.28541   0.99298
C          C       0.78509   0.71459   0.00702
C          C       0.21491   0.71459   0.99298
C          C       0.21491   0.28541   0.00702
C          C       0.99298   0.78509   0.28541
C          C       0.00702   0.78509   0.71459
C          C       0.99298   0.21491   0.71459
C          C       0.00702   0.21491   0.28541
N          N       0.84016   0.15284   0.34353
N          N       0.15984   0.84716   0.34353
N          N       0.15984   0.15284   0.65647
N          N       0.84016   0.84716   0.65647
N          N       0.34353   0.84016   0.15284
N          N       0.34353   0.15984   0.84716
N          N       0.65647   0.15984   0.15284
N          N       0.65647   0.84016   0.84716
N          N       0.15284   0.34353   0.84016
N          N       0.84716   0.34353   0.15984
N          N       0.15284   0.65647   0.15984
N          N       0.84716   0.65647   0.84016
N          N       0.15984   0.84716   0.65647
N          N       0.84016   0.15284   0.65647
N          N       0.84016   0.84716   0.34353
N          N       0.15984   0.15284   0.34353
N          N       0.65647   0.15984   0.84716
N          N       0.65647   0.84016   0.15284
N          N       0.34353   0.84016   0.84716
N          N       0.34353   0.15984   0.15284
N          N       0.84716   0.65647   0.15984
N          N       0.15284   0.65647   0.84016
N          N       0.84716   0.34353   0.84016
N          N       0.15284   0.34353   0.15984
H          H       0.26860   0.70943   0.46749
H          H       0.73140   0.29057   0.46749
H          H       0.73140   0.70943   0.53251
H          H       0.26860   0.29057   0.53251
H          H       0.46749   0.26860   0.70943
H          H       0.46749   0.73140   0.29057
H          H       0.53251   0.73140   0.70943
H          H       0.53251   0.26860   0.29057
H          H       0.70943   0.46749   0.26860
H          H       0.29057   0.46749   0.73140
H          H       0.70943   0.53251   0.73140
H          H       0.29057   0.53251   0.26860
H          H       0.73140   0.29057   0.53251
H          H       0.26860   0.70943   0.53251
H          H       0.26860   0.29057   0.46749
H          H       0.73140   0.70943   0.46749
H          H       0.53251   0.73140   0.29057
H          H       0.53251   0.26860   0.70943
H          H       0.46749   0.26860   0.29057
H          H       0.46749   0.73140   0.70943
H          H       0.29057   0.53251   0.73140
H          H       0.70943   0.53251   0.26860
H          H       0.29057   0.46749   0.26860
H          H       0.70943   0.46749   0.73140
H          H       0.28071   0.69726   0.44885
H          H       0.71929   0.30274   0.44885
H          H       0.71929   0.69726   0.55115
H          H       0.28071   0.30274   0.55115
H          H       0.44885   0.28071   0.69726
H          H       0.44885   0.71929   0.30274
H          H       0.55115   0.71929   0.69726
H          H       0.55115   0.28071   0.30274
H          H       0.69726   0.44885   0.28071
H          H       0.30274   0.44885   0.71929
H          H       0.69726   0.55115   0.71929
H          H       0.30274   0.55115   0.28071
H          H       0.71929   0.30274   0.55115
H          H       0.28071   0.69726   0.55115
H          H       0.28071   0.30274   0.44885
H          H       0.71929   0.69726   0.44885
H          H       0.55115   0.71929   0.30274
H          H       0.55115   0.28071   0.69726
H          H       0.44885   0.28071   0.30274
H          H       0.44885   0.71929   0.69726
H          H       0.30274   0.55115   0.71929
H          H       0.69726   0.55115   0.28071
H          H       0.30274   0.44885   0.28071
H          H       0.69726   0.44885   0.71929
H          H       0.30330   0.73442   0.43960
H          H       0.69670   0.26558   0.43960
H          H       0.69670   0.73442   0.56040
H          H       0.30330   0.26558   0.56040
H          H       0.43960   0.30330   0.73442
H          H       0.43960   0.69670   0.26558
H          H       0.56040   0.69670   0.73442
H          H       0.56040   0.30330   0.26558
H          H       0.73442   0.43960   0.30330
H          H       0.26558   0.43960   0.69670
H          H       0.73442   0.56040   0.69670
H          H       0.26558   0.56040   0.30330
H          H       0.69670   0.26558   0.56040
H          H       0.30330   0.73442   0.56040
H          H       0.30330   0.26558   0.43960
H          H       0.69670   0.73442   0.43960
H          H       0.56040   0.69670   0.26558
H          H       0.56040   0.30330   0.73442
H          H       0.43960   0.30330   0.26558
H          H       0.43960   0.69670   0.73442
H          H       0.26558   0.56040   0.69670
H          H       0.73442   0.56040   0.30330
H          H       0.26558   0.43960   0.30330
H          H       0.73442   0.43960   0.69670
H          H       0.29138   0.74631   0.45822
H          H       0.70862   0.25369   0.45822
H          H       0.70862   0.74631   0.54178
H          H       0.29138   0.25369   0.54178
H          H       0.45822   0.29138   0.74631
H          H       0.45822   0.70862   0.25369
H          H       0.54178   0.70862   0.74631
H          H       0.54178   0.29138   0.25369
H          H       0.74631   0.45822   0.29138
H          H       0.25369   0.45822   0.70862
H          H       0.74631   0.54178   0.70862
H          H       0.25369   0.54178   0.29138
H          H       0.70862   0.25369   0.54178
H          H       0.29138   0.74631   0.54178
H          H       0.29138   0.25369   0.45822
H          H       0.70862   0.74631   0.45822
H          H       0.54178   0.70862   0.25369
H          H       0.54178   0.29138   0.74631
H          H       0.45822   0.29138   0.25369
H          H       0.45822   0.70862   0.74631
H          H       0.25369   0.54178   0.70862
H          H       0.74631   0.54178   0.29138
H          H       0.25369   0.45822   0.29138
H          H       0.74631   0.45822   0.70862
H          H       0.31601   0.72009   0.42776
H          H       0.68399   0.27991   0.42776
H          H       0.68399   0.72009   0.57224
H          H       0.31601   0.27991   0.57224
H          H       0.42776   0.31601   0.72009
H          H       0.42776   0.68399   0.27991
H          H       0.57224   0.68399   0.72009
H          H       0.57224   0.31601   0.27991
H          H       0.72009   0.42776   0.31601
H          H       0.27991   0.42776   0.68399
H          H       0.72009   0.57224   0.68399
H          H       0.27991   0.57224   0.31601
H          H       0.68399   0.27991   0.57224
H          H       0.31601   0.72009   0.57224
H          H       0.31601   0.27991   0.42776
H          H       0.68399   0.72009   0.42776
H          H       0.57224   0.68399   0.27991
H          H       0.57224   0.31601   0.72009
H          H       0.42776   0.31601   0.27991
H          H       0.42776   0.68399   0.72009
H          H       0.27991   0.57224   0.68399
H          H       0.72009   0.57224   0.31601
H          H       0.27991   0.42776   0.31601
H          H       0.72009   0.42776   0.68399
H          H       0.33263   0.71599   0.40921
H          H       0.66737   0.28401   0.40921
H          H       0.66737   0.71599   0.59079
H          H       0.33263   0.28401   0.59079
H          H       0.40921   0.33263   0.71599
H          H       0.40921   0.66737   0.28401
H          H       0.59079   0.66737   0.71599
H          H       0.59079   0.33263   0.28401
H          H       0.71599   0.40921   0.33263
H          H       0.28401   0.40921   0.66737
H          H       0.71599   0.59079   0.66737
H          H       0.28401   0.59079   0.33263
H          H       0.66737   0.28401   0.59079
H          H       0.33263   0.71599   0.59079
H          H       0.33263   0.28401   0.40921
H          H       0.66737   0.71599   0.40921
H          H       0.59079   0.66737   0.28401
H          H       0.59079   0.33263   0.71599
H          H       0.40921   0.33263   0.28401
H          H       0.40921   0.66737   0.71599
H          H       0.28401   0.59079   0.66737
H          H       0.71599   0.59079   0.33263
H          H       0.28401   0.40921   0.33263
H          H       0.71599   0.40921   0.66737
H          H       0.34115   0.70263   0.38965
H          H       0.65885   0.29737   0.38965
H          H       0.65885   0.70263   0.61035
H          H       0.34115   0.29737   0.61035
H          H       0.38965   0.34115   0.70263
H          H       0.38965   0.65885   0.29737
H          H       0.61035   0.65885   0.70263
H          H       0.61035   0.34115   0.29737
H          H       0.70263   0.38965   0.34115
H          H       0.29737   0.38965   0.65885
H          H       0.70263   0.61035   0.65885
H          H       0.29737   0.61035   0.34115
H          H       0.65885   0.29737   0.61035
H          H       0.34115   0.70263   0.61035
H          H       0.34115   0.29737   0.38965
H          H       0.65885   0.70263   0.38965
H          H       0.61035   0.65885   0.29737
H          H       0.61035   0.34115   0.70263
H          H       0.38965   0.34115   0.29737
H          H       0.38965   0.65885   0.70263
H          H       0.29737   0.61035   0.65885
H          H       0.70263   0.61035   0.34115
H          H       0.29737   0.38965   0.34115
H          H       0.70263   0.38965   0.65885
H          H       0.30787   0.67366   0.39501
H          H       0.69213   0.32634   0.39501
H          H       0.69213   0.67366   0.60499
H          H       0.30787   0.32634   0.60499
H          H       0.39501   0.30787   0.67366
H          H       0.39501   0.69213   0.32634
H          H       0.60499   0.69213   0.67366
H          H       0.60499   0.30787   0.32634
H          H       0.67366   0.39501   0.30787
H          H       0.32634   0.39501   0.69213
H          H       0.67366   0.60499   0.69213
H          H       0.32634   0.60499   0.30787
H          H       0.69213   0.32634   0.60499
H          H       0.30787   0.67366   0.60499
H          H       0.30787   0.32634   0.39501
H          H       0.69213   0.67366   0.39501
H          H       0.60499   0.69213   0.32634
H          H       0.60499   0.30787   0.67366
H          H       0.39501   0.30787   0.32634
H          H       0.39501   0.69213   0.67366
H          H       0.32634   0.60499   0.69213
H          H       0.67366   0.60499   0.30787
H          H       0.32634   0.39501   0.30787
H          H       0.67366   0.39501   0.69213
H          H       0.29953   0.68687   0.41468
H          H       0.70047   0.31313   0.41468
H          H       0.70047   0.68687   0.58532
H          H       0.29953   0.31313   0.58532
H          H       0.41468   0.29953   0.68687
H          H       0.41468   0.70047   0.31313
H          H       0.58532   0.70047   0.68687
H          H       0.58532   0.29953   0.31313
H          H       0.68687   0.41468   0.29953
H          H       0.31313   0.41468   0.70047
H          H       0.68687   0.58532   0.70047
H          H       0.31313   0.58532   0.29953
H          H       0.70047   0.31313   0.58532
H          H       0.29953   0.68687   0.58532
H          H       0.29953   0.31313   0.41468
H          H       0.70047   0.68687   0.41468
H          H       0.58532   0.70047   0.31313
H          H       0.58532   0.29953   0.68687
H          H       0.41468   0.29953   0.31313
H          H       0.41468   0.70047   0.68687
H          H       0.31313   0.58532   0.70047
H          H       0.68687   0.58532   0.29953
H          H       0.31313   0.41468   0.29953
H          H       0.68687   0.41468   0.70047
H          H       0.33454   0.69715   0.36622
H          H       0.66546   0.30285   0.36622
H          H       0.66546   0.69715   0.63378
H          H       0.33454   0.30285   0.63378
H          H       0.36622   0.33454   0.69715
H          H       0.36622   0.66546   0.30285
H          H       0.63378   0.66546   0.69715
H          H       0.63378   0.33454   0.30285
H          H       0.69715   0.36622   0.33454
H          H       0.30285   0.36622   0.66546
H          H       0.69715   0.63378   0.66546
H          H       0.30285   0.63378   0.33454
H          H       0.66546   0.30285   0.63378
H          H       0.33454   0.69715   0.63378
H          H       0.33454   0.30285   0.36622
H          H       0.66546   0.69715   0.36622
H          H       0.63378   0.66546   0.30285
H          H       0.63378   0.33454   0.69715
H          H       0.36622   0.33454   0.30285
H          H       0.36622   0.66546   0.69715
H          H       0.30285   0.63378   0.66546
H          H       0.69715   0.63378   0.33454
H          H       0.30285   0.36622   0.33454
H          H       0.69715   0.36622   0.66546
H          H       0.34238   0.68409   0.34618
H          H       0.65762   0.31591   0.34618
H          H       0.65762   0.68409   0.65382
H          H       0.34238   0.31591   0.65382
H          H       0.34618   0.34238   0.68409
H          H       0.34618   0.65762   0.31591
H          H       0.65382   0.65762   0.68409
H          H       0.65382   0.34238   0.31591
H          H       0.68409   0.34618   0.34238
H          H       0.31591   0.34618   0.65762
H          H       0.68409   0.65382   0.65762
H          H       0.31591   0.65382   0.34238
H          H       0.65762   0.31591   0.65382
H          H       0.34238   0.68409   0.65382
H          H       0.34238   0.31591   0.34618
H          H       0.65762   0.68409   0.34618
H          H       0.65382   0.65762   0.31591
H          H       0.65382   0.34238   0.68409
H          H       0.34618   0.34238   0.31591
H          H       0.34618   0.65762   0.68409
H          H       0.31591   0.65382   0.65762
H          H       0.68409   0.65382   0.34238
H          H       0.31591   0.34618   0.34238
H          H       0.68409   0.34618   0.65762
H          H       0.33468   0.64613   0.36782
H          H       0.66532   0.35387   0.36782
H          H       0.66532   0.64613   0.63218
H          H       0.33468   0.35387   0.63218
H          H       0.36782   0.33468   0.64613
H          H       0.36782   0.66532   0.35387
H          H       0.63218   0.66532   0.64613
H          H       0.63218   0.33468   0.35387
H          H       0.64613   0.36782   0.33468
H          H       0.35387   0.36782   0.66532
H          H       0.64613   0.63218   0.66532
H          H       0.35387   0.63218   0.33468
H          H       0.66532   0.35387   0.63218
H          H       0.33468   0.64613   0.63218
H          H       0.33468   0.35387   0.36782
H          H       0.66532   0.64613   0.36782
H          H       0.63218   0.66532   0.35387
H          H       0.63218   0.33468   0.64613
H          H       0.36782   0.33468   0.35387
H          H       0.36782   0.66532   0.64613
H          H       0.35387   0.63218   0.66532
H          H       0.64613   0.63218   0.33468
H          H       0.35387   0.36782   0.33468
H          H       0.64613   0.36782   0.66532
H          H       0.32689   0.65913   0.38794
H          H       0.67311   0.34087   0.38794
H          H       0.67311   0.65913   0.61206
H          H       0.32689   0.34087   0.61206
H          H       0.38794   0.32689   0.65913
H          H       0.38794   0.67311   0.34087
H          H       0.61206   0.67311   0.65913
H          H       0.61206   0.32689   0.34087
H          H       0.65913   0.38794   0.32689
H          H       0.34087   0.38794   0.67311
H          H       0.65913   0.61206   0.67311
H          H       0.34087   0.61206   0.32689
H          H       0.67311   0.34087   0.61206
H          H       0.32689   0.65913   0.61206
H          H       0.32689   0.34087   0.38794
H          H       0.67311   0.65913   0.38794
H          H       0.61206   0.67311   0.34087
H          H       0.61206   0.32689   0.65913
H          H       0.38794   0.32689   0.34087
H          H       0.38794   0.67311   0.65913
H          H       0.34087   0.61206   0.67311
H          H       0.65913   0.61206   0.32689
H          H       0.34087   0.38794   0.32689
H          H       0.65913   0.38794   0.67311
H          H       0.75449   0.20882   0.45820
H          H       0.24551   0.79118   0.45820
H          H       0.24551   0.20882   0.54180
H          H       0.75449   0.79118   0.54180
H          H       0.45820   0.75449   0.20882
H          H       0.45820   0.24551   0.79118
H          H       0.54180   0.24551   0.20882
H          H       0.54180   0.75449   0.79118
H          H       0.20882   0.45820   0.75449
H          H       0.79118   0.45820   0.24551
H          H       0.20882   0.54180   0.24551
H          H       0.79118   0.54180   0.75449
H          H       0.24551   0.79118   0.54180
H          H       0.75449   0.20882   0.54180
H          H       0.75449   0.79118   0.45820
H          H       0.24551   0.20882   0.45820
H          H       0.54180   0.24551   0.79118
H          H       0.54180   0.75449   0.20882
H          H       0.45820   0.75449   0.79118
H          H       0.45820   0.24551   0.20882
H          H       0.79118   0.54180   0.24551
H          H       0.20882   0.54180   0.75449
H          H       0.79118   0.45820   0.75449
H          H       0.20882   0.45820   0.24551
H          H       0.76693   0.19699   0.43956
H          H       0.23307   0.80301   0.43956
H          H       0.23307   0.19699   0.56044
H          H       0.76693   0.80301   0.56044
H          H       0.43956   0.76693   0.19699
H          H       0.43956   0.23307   0.80301
H          H       0.56044   0.23307   0.19699
H          H       0.56044   0.76693   0.80301
H          H       0.19699   0.43956   0.76693
H          H       0.80301   0.43956   0.23307
H          H       0.19699   0.56044   0.23307
H          H       0.80301   0.56044   0.76693
H          H       0.23307   0.80301   0.56044
H          H       0.76693   0.19699   0.56044
H          H       0.76693   0.80301   0.43956
H          H       0.23307   0.19699   0.43956
H          H       0.56044   0.23307   0.80301
H          H       0.56044   0.76693   0.19699
H          H       0.43956   0.76693   0.80301
H          H       0.43956   0.23307   0.19699
H          H       0.80301   0.56044   0.23307
H          H       0.19699   0.56044   0.76693
H          H       0.80301   0.43956   0.76693
H          H       0.19699   0.43956   0.23307
H          H       0.80345   0.22034   0.44944
H          H       0.19655   0.77966   0.44944
H          H       0.19655   0.22034   0.55056
H          H       0.80345   0.77966   0.55056
H          H       0.44944   0.80345   0.22034
H          H       0.44944   0.19655   0.77966
H          H       0.55056   0.19655   0.22034
H          H       0.55056   0.80345   0.77966
H          H       0.22034   0.44944   0.80345
H          H       0.77966   0.44944   0.19655
H          H       0.22034   0.55056   0.19655
H          H       0.77966   0.55056   0.80345
H          H       0.19655   0.77966   0.55056
H          H       0.80345   0.22034   0.55056
H          H       0.80345   0.77966   0.44944
H          H       0.19655   0.22034   0.44944
H          H       0.55056   0.19655   0.77966
H          H       0.55056   0.80345   0.22034
H          H       0.44944   0.80345   0.77966
H          H       0.44944   0.19655   0.22034
H          H       0.77966   0.55056   0.19655
H          H       0.22034   0.55056   0.80345
H          H       0.77966   0.44944   0.80345
H          H       0.22034   0.44944   0.19655
H          H       0.79095   0.23215   0.46774
H          H       0.20905   0.76785   0.46774
H          H       0.20905   0.23215   0.53226
H          H       0.79095   0.76785   0.53226
H          H       0.46774   0.79095   0.23215
H          H       0.46774   0.20905   0.76785
H          H       0.53226   0.20905   0.23215
H          H       0.53226   0.79095   0.76785
H          H       0.23215   0.46774   0.79095
H          H       0.76785   0.46774   0.20905
H          H       0.23215   0.53226   0.20905
H          H       0.76785   0.53226   0.79095
H          H       0.20905   0.76785   0.53226
H          H       0.79095   0.23215   0.53226
H          H       0.79095   0.76785   0.46774
H          H       0.20905   0.23215   0.46774
H          H       0.53226   0.20905   0.76785
H          H       0.53226   0.79095   0.23215
H          H       0.46774   0.79095   0.76785
H          H       0.46774   0.20905   0.23215
H          H       0.76785   0.53226   0.20905
H          H       0.23215   0.53226   0.79095
H          H       0.76785   0.46774   0.79095
H          H       0.23215   0.46774   0.20905
H          H       0.80983   0.21329   0.42908
H          H       0.19017   0.78671   0.42908
H          H       0.19017   0.21329   0.57092
H          H       0.80983   0.78671   0.57092
H          H       0.42908   0.80983   0.21329
H          H       0.42908   0.19017   0.78671
H          H       0.57092   0.19017   0.21329
H          H       0.57092   0.80983   0.78671
H          H       0.21329   0.42908   0.80983
H          H       0.78671   0.42908   0.19017
H          H       0.21329   0.57092   0.19017
H          H       0.78671   0.57092   0.80983
H          H       0.19017   0.78671   0.57092
H          H       0.80983   0.21329   0.57092
H          H       0.80983   0.78671   0.42908
H          H       0.19017   0.21329   0.42908
H          H       0.57092   0.19017   0.78671
H          H       0.57092   0.80983   0.21329
H          H       0.42908   0.80983   0.78671
H          H       0.42908   0.19017   0.21329
H          H       0.78671   0.57092   0.19017
H          H       0.21329   0.57092   0.80983
H          H       0.78671   0.42908   0.80983
H          H       0.21329   0.42908   0.19017
H          H       0.82736   0.20949   0.41135
H          H       0.17264   0.79051   0.41135
H          H       0.17264   0.20949   0.58865
H          H       0.82736   0.79051   0.58865
H          H       0.41135   0.82736   0.20949
H          H       0.41135   0.17264   0.79051
H          H       0.58865   0.17264   0.20949
H          H       0.58865   0.82736   0.79051
H          H       0.20949   0.41135   0.82736
H          H       0.79051   0.41135   0.17264
H          H       0.20949   0.58865   0.17264
H          H       0.79051   0.58865   0.82736
H          H       0.17264   0.79051   0.58865
H          H       0.82736   0.20949   0.58865
H          H       0.82736   0.79051   0.41135
H          H       0.17264   0.20949   0.41135
H          H       0.58865   0.17264   0.79051
H          H       0.58865   0.82736   0.20949
H          H       0.41135   0.82736   0.79051
H          H       0.41135   0.17264   0.20949
H          H       0.79051   0.58865   0.17264
H          H       0.20949   0.58865   0.82736
H          H       0.79051   0.41135   0.82736
H          H       0.20949   0.41135   0.17264
H          H       0.83652   0.19683   0.39161
H          H       0.16348   0.80317   0.39161
H          H       0.16348   0.19683   0.60839
H          H       0.83652   0.80317   0.60839
H          H       0.39161   0.83652   0.19683
H          H       0.39161   0.16348   0.80317
H          H       0.60839   0.16348   0.19683
H          H       0.60839   0.83652   0.80317
H          H       0.19683   0.39161   0.83652
H          H       0.80317   0.39161   0.16348
H          H       0.19683   0.60839   0.16348
H          H       0.80317   0.60839   0.83652
H          H       0.16348   0.80317   0.60839
H          H       0.83652   0.19683   0.60839
H          H       0.83652   0.80317   0.39161
H          H       0.16348   0.19683   0.39161
H          H       0.60839   0.16348   0.80317
H          H       0.60839   0.83652   0.19683
H          H       0.39161   0.83652   0.80317
H          H       0.39161   0.16348   0.19683
H          H       0.80317   0.60839   0.16348
H          H       0.19683   0.60839   0.83652
H          H       0.80317   0.39161   0.83652
H          H       0.19683   0.39161   0.16348
H          H       0.80223   0.16863   0.39384
H          H       0.19777   0.83137   0.39384
H          H       0.19777   0.16863   0.60616
H          H       0.80223   0.83137   0.60616
H          H       0.39384   0.80223   0.16863
H          H       0.39384   0.19777   0.83137
H          H       0.60616   0.19777   0.16863
H          H       0.60616   0.80223   0.83137
H          H       0.16863   0.39384   0.80223
H          H       0.83137   0.39384   0.19777
H          H       0.16863   0.60616   0.19777
H          H       0.83137   0.60616   0.80223
H          H       0.19777   0.83137   0.60616
H          H       0.80223   0.16863   0.60616
H          H       0.80223   0.83137   0.39384
H          H       0.19777   0.16863   0.39384
H          H       0.60616   0.19777   0.83137
H          H       0.60616   0.80223   0.16863
H          H       0.39384   0.80223   0.83137
H          H       0.39384   0.19777   0.16863
H          H       0.83137   0.60616   0.19777
H          H       0.16863   0.60616   0.80223
H          H       0.83137   0.39384   0.80223
H          H       0.16863   0.39384   0.19777
H          H       0.79324   0.18113   0.41370
H          H       0.20676   0.81887   0.41370
H          H       0.20676   0.18113   0.58630
H          H       0.79324   0.81887   0.58630
H          H       0.41370   0.79324   0.18113
H          H       0.41370   0.20676   0.81887
H          H       0.58630   0.20676   0.18113
H          H       0.58630   0.79324   0.81887
H          H       0.18113   0.41370   0.79324
H          H       0.81887   0.41370   0.20676
H          H       0.18113   0.58630   0.20676
H          H       0.81887   0.58630   0.79324
H          H       0.20676   0.81887   0.58630
H          H       0.79324   0.18113   0.58630
H          H       0.79324   0.81887   0.41370
H          H       0.20676   0.18113   0.41370
H          H       0.58630   0.20676   0.81887
H          H       0.58630   0.79324   0.18113
H          H       0.41370   0.79324   0.81887
H          H       0.41370   0.20676   0.18113
H          H       0.81887   0.58630   0.20676
H          H       0.18113   0.58630   0.79324
H          H       0.81887   0.41370   0.79324
H          H       0.18113   0.41370   0.20676
H          H       0.83098   0.19269   0.36764
H          H       0.16902   0.80731   0.36764
H          H       0.16902   0.19269   0.63236
H          H       0.83098   0.80731   0.63236
H          H       0.36764   0.83098   0.19269
H          H       0.36764   0.16902   0.80731
H          H       0.63236   0.16902   0.19269
H          H       0.63236   0.83098   0.80731
H          H       0.19269   0.36764   0.83098
H          H       0.80731   0.36764   0.16902
H          H       0.19269   0.63236   0.16902
H          H       0.80731   0.63236   0.83098
H          H       0.16902   0.80731   0.63236
H          H       0.83098   0.19269   0.63236
H          H       0.83098   0.80731   0.36764
H          H       0.16902   0.19269   0.36764
H          H       0.63236   0.16902   0.80731
H          H       0.63236   0.83098   0.19269
H          H       0.36764   0.83098   0.80731
H          H       0.36764   0.16902   0.19269
H          H       0.80731   0.63236   0.16902
H          H       0.19269   0.63236   0.83098
H          H       0.80731   0.36764   0.83098
H          H       0.19269   0.36764   0.16902
H          H       0.83952   0.18037   0.34741
H          H       0.16048   0.81963   0.34741
H          H       0.16048   0.18037   0.65259
H          H       0.83952   0.81963   0.65259
H          H       0.34741   0.83952   0.18037
H          H       0.34741   0.16048   0.81963
H          H       0.65259   0.16048   0.18037
H          H       0.65259   0.83952   0.81963
H          H       0.18037   0.34741   0.83952
H          H       0.81963   0.34741   0.16048
H          H       0.18037   0.65259   0.16048
H          H       0.81963   0.65259   0.83952
H          H       0.16048   0.81963   0.65259
H          H       0.83952   0.18037   0.65259
H          H       0.83952   0.81963   0.34741
H          H       0.16048   0.18037   0.34741
H          H       0.65259   0.16048   0.81963
H          H       0.65259   0.83952   0.18037
H          H       0.34741   0.83952   0.81963
H          H       0.34741   0.16048   0.18037
H          H       0.81963   0.65259   0.16048
H          H       0.18037   0.65259   0.83952
H          H       0.81963   0.34741   0.83952
H          H       0.18037   0.34741   0.16048
H          H       0.82973   0.14166   0.36675
H          H       0.17027   0.85834   0.36675
H          H       0.17027   0.14166   0.63325
H          H       0.82973   0.85834   0.63325
H          H       0.36675   0.82973   0.14166
H          H       0.36675   0.17027   0.85834
H          H       0.63325   0.17027   0.14166
H          H       0.63325   0.82973   0.85834
H          H       0.14166   0.36675   0.82973
H          H       0.85834   0.36675   0.17027
H          H       0.14166   0.63325   0.17027
H          H       0.85834   0.63325   0.82973
H          H       0.17027   0.85834   0.63325
H          H       0.82973   0.14166   0.63325
H          H       0.82973   0.85834   0.36675
H          H       0.17027   0.14166   0.36675
H          H       0.63325   0.17027   0.85834
H          H       0.63325   0.82973   0.14166
H          H       0.36675   0.82973   0.85834
H          H       0.36675   0.17027   0.14166
H          H       0.85834   0.63325   0.17027
H          H       0.14166   0.63325   0.82973
H          H       0.85834   0.36675   0.82973
H          H       0.14166   0.36675   0.17027
H          H       0.82121   0.15391   0.38705
H          H       0.17879   0.84609   0.38705
H          H       0.17879   0.15391   0.61295
H          H       0.82121   0.84609   0.61295
H          H       0.38705   0.82121   0.15391
H          H       0.38705   0.17879   0.84609
H          H       0.61295   0.17879   0.15391
H          H       0.61295   0.82121   0.84609
H          H       0.15391   0.38705   0.82121
H          H       0.84609   0.38705   0.17879
H          H       0.15391   0.61295   0.17879
H          H       0.84609   0.61295   0.82121
H          H       0.17879   0.84609   0.61295
H          H       0.82121   0.15391   0.61295
H          H       0.82121   0.84609   0.38705
H          H       0.17879   0.15391   0.38705
H          H       0.61295   0.17879   0.84609
H          H       0.61295   0.82121   0.15391
H          H       0.38705   0.82121   0.84609
H          H       0.38705   0.17879   0.15391
H          H       0.84609   0.61295   0.17879
H          H       0.15391   0.61295   0.82121
H          H       0.84609   0.38705   0.82121
H          H       0.15391   0.38705   0.17879
H          H       0.26174   0.21145   0.96734
H          H       0.73826   0.78855   0.96734
H          H       0.73826   0.21145   0.03266
H          H       0.26174   0.78855   0.03266
H          H       0.96734   0.26174   0.21145
H          H       0.96734   0.73826   0.78855
H          H       0.03266   0.73826   0.21145
H          H       0.03266   0.26174   0.78855
H          H       0.21145   0.96734   0.26174
H          H       0.78855   0.96734   0.73826
H          H       0.21145   0.03266   0.73826
H          H       0.78855   0.03266   0.26174
H          H       0.73826   0.78855   0.03266
H          H       0.26174   0.21145   0.03266
H          H       0.26174   0.78855   0.96734
H          H       0.73826   0.21145   0.96734
H          H       0.03266   0.73826   0.78855
H          H       0.03266   0.26174   0.21145
H          H       0.96734   0.26174   0.78855
H          H       0.96734   0.73826   0.21145
H          H       0.78855   0.03266   0.73826
H          H       0.21145   0.03266   0.26174
H          H       0.78855   0.96734   0.26174
H          H       0.21145   0.96734   0.73826
H          H       0.27466   0.19975   0.94894
H          H       0.72534   0.80025   0.94894
H          H       0.72534   0.19975   0.05106
H          H       0.27466   0.80025   0.05106
H          H       0.94894   0.27466   0.19975
H          H       0.94894   0.72534   0.80025
H          H       0.05106   0.72534   0.19975
H          H       0.05106   0.27466   0.80025
H          H       0.19975   0.94894   0.27466
H          H       0.80025   0.94894   0.72534
H          H       0.19975   0.05106   0.72534
H          H       0.80025   0.05106   0.27466
H          H       0.72534   0.80025   0.05106
H          H       0.27466   0.19975   0.05106
H          H       0.27466   0.80025   0.94894
H          H       0.72534   0.19975   0.94894
H          H       0.05106   0.72534   0.80025
H          H       0.05106   0.27466   0.19975
H          H       0.94894   0.27466   0.80025
H          H       0.94894   0.72534   0.19975
H          H       0.80025   0.05106   0.72534
H          H       0.19975   0.05106   0.27466
H          H       0.80025   0.94894   0.27466
H          H       0.19975   0.94894   0.72534
H          H       0.29592   0.23777   0.94004
H          H       0.70408   0.76223   0.94004
H          H       0.70408   0.23777   0.05996
H          H       0.29592   0.76223   0.05996
H          H       0.94004   0.29592   0.23777
H          H       0.94004   0.70408   0.76223
H          H       0.05996   0.70408   0.23777
H          H       0.05996   0.29592   0.76223
H          H       0.23777   0.94004   0.29592
H          H       0.76223   0.94004   0.70408
H          H       0.23777   0.05996   0.70408
H          H       0.76223   0.05996   0.29592
H          H       0.70408   0.76223   0.05996
H          H       0.29592   0.23777   0.05996
H          H       0.29592   0.76223   0.94004
H          H       0.70408   0.23777   0.94004
H          H       0.05996   0.70408   0.76223
H          H       0.05996   0.29592   0.23777
H          H       0.94004   0.29592   0.76223
H          H       0.94004   0.70408   0.23777
H          H       0.76223   0.05996   0.70408
H          H       0.23777   0.05996   0.29592
H          H       0.76223   0.94004   0.29592
H          H       0.23777   0.94004   0.70408
H          H       0.28320   0.24919   0.95842
H          H       0.71680   0.75081   0.95842
H          H       0.71680   0.24919   0.04158
H          H       0.28320   0.75081   0.04158
H          H       0.95842   0.28320   0.24919
H          H       0.95842   0.71680   0.75081
H          H       0.04158   0.71680   0.24919
H          H       0.04158   0.28320   0.75081
H          H       0.24919   0.95842   0.28320
H          H       0.75081   0.95842   0.71680
H          H       0.24919   0.04158   0.71680
H          H       0.75081   0.04158   0.28320
H          H       0.71680   0.75081   0.04158
H          H       0.28320   0.24919   0.04158
H          H       0.28320   0.75081   0.95842
H          H       0.71680   0.24919   0.95842
H          H       0.04158   0.71680   0.75081
H          H       0.04158   0.28320   0.24919
H          H       0.95842   0.28320   0.75081
H          H       0.95842   0.71680   0.24919
H          H       0.75081   0.04158   0.71680
H          H       0.24919   0.04158   0.28320
H          H       0.75081   0.95842   0.28320
H          H       0.24919   0.95842   0.71680
H          H       0.30948   0.22395   0.92858
H          H       0.69052   0.77605   0.92858
H          H       0.69052   0.22395   0.07142
H          H       0.30948   0.77605   0.07142
H          H       0.92858   0.30948   0.22395
H          H       0.92858   0.69052   0.77605
H          H       0.07142   0.69052   0.22395
H          H       0.07142   0.30948   0.77605
H          H       0.22395   0.92858   0.30948
H          H       0.77605   0.92858   0.69052
H          H       0.22395   0.07142   0.69052
H          H       0.77605   0.07142   0.30948
H          H       0.69052   0.77605   0.07142
H          H       0.30948   0.22395   0.07142
H          H       0.30948   0.77605   0.92858
H          H       0.69052   0.22395   0.92858
H          H       0.07142   0.69052   0.77605
H          H       0.07142   0.30948   0.22395
H          H       0.92858   0.30948   0.77605
H          H       0.92858   0.69052   0.22395
H          H       0.77605   0.07142   0.69052
H          H       0.22395   0.07142   0.30948
H          H       0.77605   0.92858   0.30948
H          H       0.22395   0.92858   0.69052
H          H       0.32686   0.22035   0.91064
H          H       0.67314   0.77965   0.91064
H          H       0.67314   0.22035   0.08936
H          H       0.32686   0.77965   0.08936
H          H       0.91064   0.32686   0.22035
H          H       0.91064   0.67314   0.77965
H          H       0.08936   0.67314   0.22035
H          H       0.08936   0.32686   0.77965
H          H       0.22035   0.91064   0.32686
H          H       0.77965   0.91064   0.67314
H          H       0.22035   0.08936   0.67314
H          H       0.77965   0.08936   0.32686
H          H       0.67314   0.77965   0.08936
H          H       0.32686   0.22035   0.08936
H          H       0.32686   0.77965   0.91064
H          H       0.67314   0.22035   0.91064
H          H       0.08936   0.67314   0.77965
H          H       0.08936   0.32686   0.22035
H          H       0.91064   0.32686   0.77965
H          H       0.91064   0.67314   0.22035
H          H       0.77965   0.08936   0.67314
H          H       0.22035   0.08936   0.32686
H          H       0.77965   0.91064   0.32686
H          H       0.22035   0.91064   0.67314
H          H       0.33674   0.20700   0.89172
H          H       0.66326   0.79300   0.89172
H          H       0.66326   0.20700   0.10828
H          H       0.33674   0.79300   0.10828
H          H       0.89172   0.33674   0.20700
H          H       0.89172   0.66326   0.79300
H          H       0.10828   0.66326   0.20700
H          H       0.10828   0.33674   0.79300
H          H       0.20700   0.89172   0.33674
H          H       0.79300   0.89172   0.66326
H          H       0.20700   0.10828   0.66326
H          H       0.79300   0.10828   0.33674
H          H       0.66326   0.79300   0.10828
H          H       0.33674   0.20700   0.10828
H          H       0.33674   0.79300   0.89172
H          H       0.66326   0.20700   0.89172
H          H       0.10828   0.66326   0.79300
H          H       0.10828   0.33674   0.20700
H          H       0.89172   0.33674   0.79300
H          H       0.89172   0.66326   0.20700
H          H       0.79300   0.10828   0.66326
H          H       0.20700   0.10828   0.33674
H          H       0.79300   0.89172   0.33674
H          H       0.20700   0.89172   0.66326
H          H       0.30467   0.17659   0.89649
H          H       0.69533   0.82341   0.89649
H          H       0.69533   0.17659   0.10351
H          H       0.30467   0.82341   0.10351
H          H       0.89649   0.30467   0.17659
H          H       0.89649   0.69533   0.82341
H          H       0.10351   0.69533   0.17659
H          H       0.10351   0.30467   0.82341
H          H       0.17659   0.89649   0.30467
H          H       0.82341   0.89649   0.69533
H          H       0.17659   0.10351   0.69533
H          H       0.82341   0.10351   0.30467
H          H       0.69533   0.82341   0.10351
H          H       0.30467   0.17659   0.10351
H          H       0.30467   0.82341   0.89649
H          H       0.69533   0.17659   0.89649
H          H       0.10351   0.69533   0.82341
H          H       0.10351   0.30467   0.17659
H          H       0.89649   0.30467   0.82341
H          H       0.89649   0.69533   0.17659
H          H       0.82341   0.10351   0.69533
H          H       0.17659   0.10351   0.30467
H          H       0.82341   0.89649   0.30467
H          H       0.17659   0.89649   0.69533
H          H       0.29496   0.18981   0.91553
H          H       0.70504   0.81019   0.91553
H          H       0.70504   0.18981   0.08447
H          H       0.29496   0.81019   0.08447
H          H       0.91553   0.29496   0.18981
H          H       0.91553   0.70504   0.81019
H          H       0.08447   0.70504   0.18981
H          H       0.08447   0.29496   0.81019
H          H       0.18981   0.91553   0.29496
H          H       0.81019   0.91553   0.70504
H          H       0.18981   0.08447   0.70504
H          H       0.81019   0.08447   0.29496
H          H       0.70504   0.81019   0.08447
H          H       0.29496   0.18981   0.08447
H          H       0.29496   0.81019   0.91553
H          H       0.70504   0.18981   0.91553
H          H       0.08447   0.70504   0.81019
H          H       0.08447   0.29496   0.18981
H          H       0.91553   0.29496   0.81019
H          H       0.91553   0.70504   0.18981
H          H       0.81019   0.08447   0.70504
H          H       0.18981   0.08447   0.29496
H          H       0.81019   0.91553   0.29496
H          H       0.18981   0.91553   0.70504
H          H       0.33139   0.20063   0.86820
H          H       0.66861   0.79937   0.86820
H          H       0.66861   0.20063   0.13180
H          H       0.33139   0.79937   0.13180
H          H       0.86820   0.33139   0.20063
H          H       0.86820   0.66861   0.79937
H          H       0.13180   0.66861   0.20063
H          H       0.13180   0.33139   0.79937
H          H       0.20063   0.86820   0.33139
H          H       0.79937   0.86820   0.66861
H          H       0.20063   0.13180   0.66861
H          H       0.79937   0.13180   0.33139
H          H       0.66861   0.79937   0.13180
H          H       0.33139   0.20063   0.13180
H          H       0.33139   0.79937   0.86820
H          H       0.66861   0.20063   0.86820
H          H       0.13180   0.66861   0.79937
H          H       0.13180   0.33139   0.20063
H          H       0.86820   0.33139   0.79937
H          H       0.86820   0.66861   0.20063
H          H       0.79937   0.13180   0.66861
H          H       0.20063   0.13180   0.33139
H          H       0.79937   0.86820   0.33139
H          H       0.20063   0.86820   0.66861
H          H       0.34080   0.18746   0.84891
H          H       0.65920   0.81254   0.84891
H          H       0.65920   0.18746   0.15109
H          H       0.34080   0.81254   0.15109
H          H       0.84891   0.34080   0.18746
H          H       0.84891   0.65920   0.81254
H          H       0.15109   0.65920   0.18746
H          H       0.15109   0.34080   0.81254
H          H       0.18746   0.84891   0.34080
H          H       0.81254   0.84891   0.65920
H          H       0.18746   0.15109   0.65920
H          H       0.81254   0.15109   0.34080
H          H       0.65920   0.81254   0.15109
H          H       0.34080   0.18746   0.15109
H          H       0.34080   0.81254   0.84891
H          H       0.65920   0.18746   0.84891
H          H       0.15109   0.65920   0.81254
H          H       0.15109   0.34080   0.18746
H          H       0.84891   0.34080   0.81254
H          H       0.84891   0.65920   0.18746
H          H       0.81254   0.15109   0.65920
H          H       0.18746   0.15109   0.34080
H          H       0.81254   0.84891   0.34080
H          H       0.18746   0.84891   0.65920
H          H       0.33402   0.14973   0.87125
H          H       0.66598   0.85027   0.87125
H          H       0.66598   0.14973   0.12875
H          H       0.33402   0.85027   0.12875
H          H       0.87125   0.33402   0.14973
H          H       0.87125   0.66598   0.85027
H          H       0.12875   0.66598   0.14973
H          H       0.12875   0.33402   0.85027
H          H       0.14973   0.87125   0.33402
H          H       0.85027   0.87125   0.66598
H          H       0.14973   0.12875   0.66598
H          H       0.85027   0.12875   0.33402
H          H       0.66598   0.85027   0.12875
H          H       0.33402   0.14973   0.12875
H          H       0.33402   0.85027   0.87125
H          H       0.66598   0.14973   0.87125
H          H       0.12875   0.66598   0.85027
H          H       0.12875   0.33402   0.14973
H          H       0.87125   0.33402   0.85027
H          H       0.87125   0.66598   0.14973
H          H       0.85027   0.12875   0.66598
H          H       0.14973   0.12875   0.33402
H          H       0.85027   0.87125   0.33402
H          H       0.14973   0.87125   0.66598
H          H       0.32466   0.16284   0.89063
H          H       0.67534   0.83716   0.89063
H          H       0.67534   0.16284   0.10937
H          H       0.32466   0.83716   0.10937
H          H       0.89063   0.32466   0.16284
H          H       0.89063   0.67534   0.83716
H          H       0.10937   0.67534   0.16284
H          H       0.10937   0.32466   0.83716
H          H       0.16284   0.89063   0.32466
H          H       0.83716   0.89063   0.67534
H          H       0.16284   0.10937   0.67534
H          H       0.83716   0.10937   0.32466
H          H       0.67534   0.83716   0.10937
H          H       0.32466   0.16284   0.10937
H          H       0.32466   0.83716   0.89063
H          H       0.67534   0.16284   0.89063
H          H       0.10937   0.67534   0.83716
H          H       0.10937   0.32466   0.16284
H          H       0.89063   0.32466   0.83716
H          H       0.89063   0.67534   0.16284
H          H       0.83716   0.10937   0.67534
H          H       0.16284   0.10937   0.32466
H          H       0.83716   0.89063   0.32466
H          H       0.16284   0.89063   0.67534
H          H       0.76441   0.70727   0.95890
H          H       0.23559   0.29273   0.95890
H          H       0.23559   0.70727   0.04110
H          H       0.76441   0.29273   0.04110
H          H       0.95890   0.76441   0.70727
H          H       0.95890   0.23559   0.29273
H          H       0.04110   0.23559   0.70727
H          H       0.04110   0.76441   0.29273
H          H       0.70727   0.95890   0.76441
H          H       0.29273   0.95890   0.23559
H          H       0.70727   0.04110   0.23559
H          H       0.29273   0.04110   0.76441
H          H       0.23559   0.29273   0.04110
H          H       0.76441   0.70727   0.04110
H          H       0.76441   0.29273   0.95890
H          H       0.23559   0.70727   0.95890
H          H       0.04110   0.23559   0.29273
H          H       0.04110   0.76441   0.70727
H          H       0.95890   0.76441   0.29273
H          H       0.95890   0.23559   0.70727
H          H       0.29273   0.04110   0.23559
H          H       0.70727   0.04110   0.76441
H          H       0.29273   0.95890   0.76441
H          H       0.70727   0.95890   0.23559
H          H       0.77690   0.69589   0.94002
H          H       0.22310   0.30411   0.94002
H          H       0.22310   0.69589   0.05998
H          H       0.77690   0.30411   0.05998
H          H       0.94002   0.77690   0.69589
H          H       0.94002   0.22310   0.30411
H          H       0.05998   0.22310   0.69589
H          H       0.05998   0.77690   0.30411
H          H       0.69589   0.94002   0.77690
H          H       0.30411   0.94002   0.22310
H          H       0.69589   0.05998   0.22310
H          H       0.30411   0.05998   0.77690
H          H       0.22310   0.30411   0.05998
H          H       0.77690   0.69589   0.05998
H          H       0.77690   0.30411   0.94002
H          H       0.22310   0.69589   0.94002
H          H       0.05998   0.22310   0.30411
H          H       0.05998   0.77690   0.69589
H          H       0.94002   0.77690   0.30411
H          H       0.94002   0.22310   0.69589
H          H       0.30411   0.05998   0.22310
H          H       0.69589   0.05998   0.77690
H          H       0.30411   0.94002   0.77690
H          H       0.69589   0.94002   0.22310
H          H       0.81233   0.72140   0.94840
H          H       0.18767   0.27860   0.94840
H          H       0.18767   0.72140   0.05160
H          H       0.81233   0.27860   0.05160
H          H       0.94840   0.81233   0.72140
H          H       0.94840   0.18767   0.27860
H          H       0.05160   0.18767   0.72140
H          H       0.05160   0.81233   0.27860
H          H       0.72140   0.94840   0.81233
H          H       0.27860   0.94840   0.18767
H          H       0.72140   0.05160   0.18767
H          H       0.27860   0.05160   0.81233
H          H       0.18767   0.27860   0.05160
H          H       0.81233   0.72140   0.05160
H          H       0.81233   0.27860   0.94840
H          H       0.18767   0.72140   0.94840
H          H       0.05160   0.18767   0.27860
H          H       0.05160   0.81233   0.72140
H          H       0.94840   0.81233   0.27860
H          H       0.94840   0.18767   0.72140
H          H       0.27860   0.05160   0.18767
H          H       0.72140   0.05160   0.81233
H          H       0.27860   0.94840   0.81233
H          H       0.72140   0.94840   0.18767
H          H       0.79977   0.73275   0.96696
H          H       0.20023   0.26725   0.96696
H          H       0.20023   0.73275   0.03304
H          H       0.79977   0.26725   0.03304
H          H       0.96696   0.79977   0.73275
H          H       0.96696   0.20023   0.26725
H          H       0.03304   0.20023   0.73275
H          H       0.03304   0.79977   0.26725
H          H       0.73275   0.96696   0.79977
H          H       0.26725   0.96696   0.20023
H          H       0.73275   0.03304   0.20023
H          H       0.26725   0.03304   0.79977
H          H       0.20023   0.26725   0.03304
H          H       0.79977   0.73275   0.03304
H          H       0.79977   0.26725   0.96696
H          H       0.20023   0.73275   0.96696
H          H       0.03304   0.20023   0.26725
H          H       0.03304   0.79977   0.73275
H          H       0.96696   0.79977   0.26725
H          H       0.96696   0.20023   0.73275
H          H       0.26725   0.03304   0.20023
H          H       0.73275   0.03304   0.79977
H          H       0.26725   0.96696   0.79977
H          H       0.73275   0.96696   0.20023
H          H       0.81824   0.71467   0.92775
H          H       0.18176   0.28533   0.92775
H          H       0.18176   0.71467   0.07225
H          H       0.81824   0.28533   0.07225
H          H       0.92775   0.81824   0.71467
H          H       0.92775   0.18176   0.28533
H          H       0.07225   0.18176   0.71467
H          H       0.07225   0.81824   0.28533
H          H       0.71467   0.92775   0.81824
H          H       0.28533   0.92775   0.18176
H          H       0.71467   0.07225   0.18176
H          H       0.28533   0.07225   0.81824
H          H       0.18176   0.28533   0.07225
H          H       0.81824   0.71467   0.07225
H          H       0.81824   0.28533   0.92775
H          H       0.18176   0.71467   0.92775
H          H       0.07225   0.18176   0.28533
H          H       0.07225   0.81824   0.71467
H          H       0.92775   0.81824   0.28533
H          H       0.92775   0.18176   0.71467
H          H       0.28533   0.07225   0.18176
H          H       0.71467   0.07225   0.81824
H          H       0.28533   0.92775   0.81824
H          H       0.71467   0.92775   0.18176
H          H       0.83496   0.71205   0.90902
H          H       0.16504   0.28795   0.90902
H          H       0.16504   0.71205   0.09098
H          H       0.83496   0.28795   0.09098
H          H       0.90902   0.83496   0.71205
H          H       0.90902   0.16504   0.28795
H          H       0.09098   0.16504   0.71205
H          H       0.09098   0.83496   0.28795
H          H       0.71205   0.90902   0.83496
H          H       0.28795   0.90902   0.16504
H          H       0.71205   0.09098   0.16504
H          H       0.28795   0.09098   0.83496
H          H       0.16504   0.28795   0.09098
H          H       0.83496   0.71205   0.09098
H          H       0.83496   0.28795   0.90902
H          H       0.16504   0.71205   0.90902
H          H       0.09098   0.16504   0.28795
H          H       0.09098   0.83496   0.71205
H          H       0.90902   0.83496   0.28795
H          H       0.90902   0.16504   0.71205
H          H       0.28795   0.09098   0.16504
H          H       0.71205   0.09098   0.83496
H          H       0.28795   0.90902   0.83496
H          H       0.71205   0.90902   0.16504
H          H       0.84379   0.70002   0.88873
H          H       0.15621   0.29998   0.88873
H          H       0.15621   0.70002   0.11127
H          H       0.84379   0.29998   0.11127
H          H       0.88873   0.84379   0.70002
H          H       0.88873   0.15621   0.29998
H          H       0.11127   0.15621   0.70002
H          H       0.11127   0.84379   0.29998
H          H       0.70002   0.88873   0.84379
H          H       0.29998   0.88873   0.15621
H          H       0.70002   0.11127   0.15621
H          H       0.29998   0.11127   0.84379
H          H       0.15621   0.29998   0.11127
H          H       0.84379   0.70002   0.11127
H          H       0.84379   0.29998   0.88873
H          H       0.15621   0.70002   0.88873
H          H       0.11127   0.15621   0.29998
H          H       0.11127   0.84379   0.70002
H          H       0.88873   0.84379   0.29998
H          H       0.88873   0.15621   0.70002
H          H       0.29998   0.11127   0.15621
H          H       0.70002   0.11127   0.84379
H          H       0.29998   0.88873   0.84379
H          H       0.70002   0.88873   0.15621
H          H       0.81184   0.66942   0.89303
H          H       0.18816   0.33058   0.89303
H          H       0.18816   0.66942   0.10697
H          H       0.81184   0.33058   0.10697
H          H       0.89303   0.81184   0.66942
H          H       0.89303   0.18816   0.33058
H          H       0.10697   0.18816   0.66942
H          H       0.10697   0.81184   0.33058
H          H       0.66942   0.89303   0.81184
H          H       0.33058   0.89303   0.18816
H          H       0.66942   0.10697   0.18816
H          H       0.33058   0.10697   0.81184
H          H       0.18816   0.33058   0.10697
H          H       0.81184   0.66942   0.10697
H          H       0.81184   0.33058   0.89303
H          H       0.18816   0.66942   0.89303
H          H       0.10697   0.18816   0.33058
H          H       0.10697   0.81184   0.66942
H          H       0.89303   0.81184   0.33058
H          H       0.89303   0.18816   0.66942
H          H       0.33058   0.10697   0.18816
H          H       0.66942   0.10697   0.81184
H          H       0.33058   0.89303   0.81184
H          H       0.66942   0.89303   0.18816
H          H       0.80319   0.68130   0.91340
H          H       0.19681   0.31870   0.91340
H          H       0.19681   0.68130   0.08660
H          H       0.80319   0.31870   0.08660
H          H       0.91340   0.80319   0.68130
H          H       0.91340   0.19681   0.31870
H          H       0.08660   0.19681   0.68130
H          H       0.08660   0.80319   0.31870
H          H       0.68130   0.91340   0.80319
H          H       0.31870   0.91340   0.19681
H          H       0.68130   0.08660   0.19681
H          H       0.31870   0.08660   0.80319
H          H       0.19681   0.31870   0.08660
H          H       0.80319   0.68130   0.08660
H          H       0.80319   0.31870   0.91340
H          H       0.19681   0.68130   0.91340
H          H       0.08660   0.19681   0.31870
H          H       0.08660   0.80319   0.68130
H          H       0.91340   0.80319   0.31870
H          H       0.91340   0.19681   0.68130
H          H       0.31870   0.08660   0.19681
H          H       0.68130   0.08660   0.80319
H          H       0.31870   0.91340   0.80319
H          H       0.68130   0.91340   0.19681
H          H       0.83692   0.69552   0.86512
H          H       0.16308   0.30448   0.86512
H          H       0.16308   0.69552   0.13488
H          H       0.83692   0.30448   0.13488
H          H       0.86512   0.83692   0.69552
H          H       0.86512   0.16308   0.30448
H          H       0.13488   0.16308   0.69552
H          H       0.13488   0.83692   0.30448
H          H       0.69552   0.86512   0.83692
H          H       0.30448   0.86512   0.16308
H          H       0.69552   0.13488   0.16308
H          H       0.30448   0.13488   0.83692
H          H       0.16308   0.30448   0.13488
H          H       0.83692   0.69552   0.13488
H          H       0.83692   0.30448   0.86512
H          H       0.16308   0.69552   0.86512
H          H       0.13488   0.16308   0.30448
H          H       0.13488   0.83692   0.69552
H          H       0.86512   0.83692   0.30448
H          H       0.86512   0.16308   0.69552
H          H       0.30448   0.13488   0.16308
H          H       0.69552   0.13488   0.83692
H          H       0.30448   0.86512   0.83692
H          H       0.69552   0.86512   0.16308
H          H       0.84486   0.68388   0.84427
H          H       0.15514   0.31612   0.84427
H          H       0.15514   0.68388   0.15573
H          H       0.84486   0.31612   0.15573
H          H       0.84427   0.84486   0.68388
H          H       0.84427   0.15514   0.31612
H          H       0.15573   0.15514   0.68388
H          H       0.15573   0.84486   0.31612
H          H       0.68388   0.84427   0.84486
H          H       0.31612   0.84427   0.15514
H          H       0.68388   0.15573   0.15514
H          H       0.31612   0.15573   0.84486
H          H       0.15514   0.31612   0.15573
H          H       0.84486   0.68388   0.15573
H          H       0.84486   0.31612   0.84427
H          H       0.15514   0.68388   0.84427
H          H       0.15573   0.15514   0.31612
H          H       0.15573   0.84486   0.68388
H          H       0.84427   0.84486   0.31612
H          H       0.84427   0.15514   0.68388
H          H       0.31612   0.15573   0.15514
H          H       0.68388   0.15573   0.84486
H          H       0.31612   0.84427   0.84486
H          H       0.68388   0.84427   0.15514
H          H       0.83930   0.64454   0.86401
H          H       0.16070   0.35546   0.86401
H          H       0.16070   0.64454   0.13599
H          H       0.83930   0.35546   0.13599
H          H       0.86401   0.83930   0.64454
H          H       0.86401   0.16070   0.35546
H          H       0.13599   0.16070   0.64454
H          H       0.13599   0.83930   0.35546
H          H       0.64454   0.86401   0.83930
H          H       0.35546   0.86401   0.16070
H          H       0.64454   0.13599   0.16070
H          H       0.35546   0.13599   0.83930
H          H       0.16070   0.35546   0.13599
H          H       0.83930   0.64454   0.13599
H          H       0.83930   0.35546   0.86401
H          H       0.16070   0.64454   0.86401
H          H       0.13599   0.16070   0.35546
H          H       0.13599   0.83930   0.64454
H          H       0.86401   0.83930   0.35546
H          H       0.86401   0.16070   0.64454
H          H       0.35546   0.13599   0.16070
H          H       0.64454   0.13599   0.83930
H          H       0.35546   0.86401   0.83930
H          H       0.64454   0.86401   0.16070
H          H       0.83139   0.65612   0.88495
H          H       0.16861   0.34388   0.88495
H          H       0.16861   0.65612   0.11505
H          H       0.83139   0.34388   0.11505
H          H       0.88495   0.83139   0.65612
H          H       0.88495   0.16861   0.34388
H          H       0.11505   0.16861   0.65612
H          H       0.11505   0.83139   0.34388
H          H       0.65612   0.88495   0.83139
H          H       0.34388   0.88495   0.16861
H          H       0.65612   0.11505   0.16861
H          H       0.34388   0.11505   0.83139
H          H       0.16861   0.34388   0.11505
H          H       0.83139   0.65612   0.11505
H          H       0.83139   0.34388   0.88495
H          H       0.16861   0.65612   0.88495
H          H       0.11505   0.16861   0.34388
H          H       0.11505   0.83139   0.65612
H          H       0.88495   0.83139   0.34388
H          H       0.88495   0.16861   0.65612
H          H       0.34388   0.11505   0.16861
H          H       0.65612   0.11505   0.83139
H          H       0.34388   0.88495   0.83139
H          H       0.65612   0.88495   0.16861
H          H       0.25845   0.44832   0.73930
H          H       0.74155   0.55168   0.73930
H          H       0.74155   0.44832   0.26070
H          H       0.25845   0.55168   0.26070
H          H       0.73930   0.25845   0.44832
H          H       0.73930   0.74155   0.55168
H          H       0.26070   0.74155   0.44832
H          H       0.26070   0.25845   0.55168
H          H       0.44832   0.73930   0.25845
H          H       0.55168   0.73930   0.74155
H          H       0.44832   0.26070   0.74155
H          H       0.55168   0.26070   0.25845
H          H       0.74155   0.55168   0.26070
H          H       0.25845   0.44832   0.26070
H          H       0.25845   0.55168   0.73930
H          H       0.74155   0.44832   0.73930
H          H       0.26070   0.74155   0.55168
H          H       0.26070   0.25845   0.44832
H          H       0.73930   0.25845   0.55168
H          H       0.73930   0.74155   0.44832
H          H       0.55168   0.26070   0.74155
H          H       0.44832   0.26070   0.25845
H          H       0.55168   0.73930   0.25845
H          H       0.44832   0.73930   0.74155
H          H       0.23960   0.44833   0.75857
H          H       0.76040   0.55167   0.75857
H          H       0.76040   0.44833   0.24143
H          H       0.23960   0.55167   0.24143
H          H       0.75857   0.23960   0.44833
H          H       0.75857   0.76040   0.55167
H          H       0.24143   0.76040   0.44833
H          H       0.24143   0.23960   0.55167
H          H       0.44833   0.75857   0.23960
H          H       0.55167   0.75857   0.76040
H          H       0.44833   0.24143   0.76040
H          H       0.55167   0.24143   0.23960
H          H       0.76040   0.55167   0.24143
H          H       0.23960   0.44833   0.24143
H          H       0.23960   0.55167   0.75857
H          H       0.76040   0.44833   0.75857
H          H       0.24143   0.76040   0.55167
H          H       0.24143   0.23960   0.44833
H          H       0.75857   0.23960   0.55167
H          H       0.75857   0.76040   0.44833
H          H       0.55167   0.24143   0.76040
H          H       0.44833   0.24143   0.23960
H          H       0.55167   0.75857   0.23960
H          H       0.44833   0.75857   0.76040
H          H       0.20765   0.51350   0.78084
H          H       0.79235   0.48650   0.78084
H          H       0.79235   0.51350   0.21916
H          H       0.20765   0.48650   0.21916
H          H       0.78084   0.20765   0.51350
H          H       0.78084   0.79235   0.48650
H          H       0.21916   0.79235   0.51350
H          H       0.21916   0.20765   0.48650
H          H       0.51350   0.78084   0.20765
H          H       0.48650   0.78084   0.79235
H          H       0.51350   0.21916   0.79235
H          H       0.48650   0.21916   0.20765
H          H       0.79235   0.48650   0.21916
H          H       0.20765   0.51350   0.21916
H          H       0.20765   0.48650   0.78084
H          H       0.79235   0.51350   0.78084
H          H       0.21916   0.79235   0.48650
H          H       0.21916   0.20765   0.51350
H          H       0.78084   0.20765   0.48650
H          H       0.78084   0.79235   0.51350
H          H       0.48650   0.21916   0.79235
H          H       0.51350   0.21916   0.20765
H          H       0.48650   0.78084   0.20765
H          H       0.51350   0.78084   0.79235
H          H       0.28008   0.48650   0.70690
H          H       0.71992   0.51350   0.70690
H          H       0.71992   0.48650   0.29310
H          H       0.28008   0.51350   0.29310
H          H       0.70690   0.28008   0.48650
H          H       0.70690   0.71992   0.51350
H          H       0.29310   0.71992   0.48650
H          H       0.29310   0.28008   0.51350
H          H       0.48650   0.70690   0.28008
H          H       0.51350   0.70690   0.71992
H          H       0.48650   0.29310   0.71992
H          H       0.51350   0.29310   0.28008
H          H       0.71992   0.51350   0.29310
H          H       0.28008   0.48650   0.29310
H          H       0.28008   0.51350   0.70690
H          H       0.71992   0.48650   0.70690
H          H       0.29310   0.71992   0.51350
H          H       0.29310   0.28008   0.48650
H          H       0.70690   0.28008   0.51350
H          H       0.70690   0.71992   0.48650
H          H       0.51350   0.29310   0.71992
H          H       0.48650   0.29310   0.28008
H          H       0.51350   0.70690   0.28008
H          H       0.48650   0.70690   0.71992
H          H       0.73845   0.05172   0.23284
H          H       0.26155   0.94828   0.23284
H          H       0.26155   0.05172   0.76716
H          H       0.73845   0.94828   0.76716
H          H       0.23284   0.73845   0.05172
H          H       0.23284   0.26155   0.94828
H          H       0.76716   0.26155   0.05172
H          H       0.76716   0.73845   0.94828
H          H       0.05172   0.23284   0.73845
H          H       0.94828   0.23284   0.26155
H          H       0.05172   0.76716   0.26155
H          H       0.94828   0.76716   0.73845
H          H       0.26155   0.94828   0.76716
H          H       0.73845   0.05172   0.76716
H          H       0.73845   0.94828   0.23284
H          H       0.26155   0.05172   0.23284
H          H       0.76716   0.26155   0.94828
H          H       0.76716   0.73845   0.05172
H          H       0.23284   0.73845   0.94828
H          H       0.23284   0.26155   0.05172
H          H       0.94828   0.76716   0.26155
H          H       0.05172   0.76716   0.73845
H          H       0.94828   0.23284   0.73845
H          H       0.05172   0.23284   0.26155
H          H       0.75656   0.05172   0.25281
H          H       0.24344   0.94828   0.25281
H          H       0.24344   0.05172   0.74719
H          H       0.75656   0.94828   0.74719
H          H       0.25281   0.75656   0.05172
H          H       0.25281   0.24344   0.94828
H          H       0.74719   0.24344   0.05172
H          H       0.74719   0.75656   0.94828
H          H       0.05172   0.25281   0.75656
H          H       0.94828   0.25281   0.24344
H          H       0.05172   0.74719   0.24344
H          H       0.94828   0.74719   0.75656
H          H       0.24344   0.94828   0.74719
H          H       0.75656   0.05172   0.74719
H          H       0.75656   0.94828   0.25281
H          H       0.24344   0.05172   0.25281
H          H       0.74719   0.24344   0.94828
H          H       0.74719   0.75656   0.05172
H          H       0.25281   0.75656   0.94828
H          H       0.25281   0.24344   0.05172
H          H       0.94828   0.74719   0.24344
H          H       0.05172   0.74719   0.75656
H          H       0.94828   0.25281   0.75656
H          H       0.05172   0.25281   0.24344
H          H       0.77726   0.98650   0.28571
H          H       0.22274   0.01350   0.28571
H          H       0.22274   0.98650   0.71429
H          H       0.77726   0.01350   0.71429
H          H       0.28571   0.77726   0.98650
H          H       0.28571   0.22274   0.01350
H          H       0.71429   0.22274   0.98650
H          H       0.71429   0.77726   0.01350
H          H       0.98650   0.28571   0.77726
H          H       0.01350   0.28571   0.22274
H          H       0.98650   0.71429   0.22274
H          H       0.01350   0.71429   0.77726
H          H       0.22274   0.01350   0.71429
H          H       0.77726   0.98650   0.71429
H          H       0.77726   0.01350   0.28571
H          H       0.22274   0.98650   0.28571
H          H       0.71429   0.22274   0.01350
H          H       0.71429   0.77726   0.98650
H          H       0.28571   0.77726   0.01350
H          H       0.28571   0.22274   0.98650
H          H       0.01350   0.71429   0.22274
H          H       0.98650   0.71429   0.77726
H          H       0.01350   0.28571   0.77726
H          H       0.98650   0.28571   0.22274
H          H       0.70785   0.01351   0.20885
H          H       0.29215   0.98649   0.20885
H          H       0.29215   0.01351   0.79115
H          H       0.70785   0.98649   0.79115
H          H       0.20885   0.70785   0.01351
H          H       0.20885   0.29215   0.98649
H          H       0.79115   0.29215   0.01351
H          H       0.79115   0.70785   0.98649
H          H       0.01351   0.20885   0.70785
H          H       0.98649   0.20885   0.29215
H          H       0.01351   0.79115   0.29215
H          H       0.98649   0.79115   0.70785
H          H       0.29215   0.98649   0.79115
H          H       0.70785   0.01351   0.79115
H          H       0.70785   0.98649   0.20885
H          H       0.29215   0.01351   0.20885
H          H       0.79115   0.29215   0.98649
H          H       0.79115   0.70785   0.01351
H          H       0.20885   0.70785   0.98649
H          H       0.20885   0.29215   0.01351
H          H       0.98649   0.79115   0.29215
H          H       0.01351   0.79115   0.70785
H          H       0.98649   0.20885   0.70785
H          H       0.01351   0.20885   0.29215
N          N       0.76117   0.23184   0.50000
N          N       0.23883   0.76816   0.50000
N          N       0.23883   0.23184   0.50000
N          N       0.76117   0.76816   0.50000
N          N       0.50000   0.76117   0.23184
N          N       0.50000   0.23883   0.76816
N          N       0.50000   0.23883   0.23184
N          N       0.50000   0.76117   0.76816
N          N       0.23184   0.50000   0.76117
N          N       0.76816   0.50000   0.23883
N          N       0.23184   0.50000   0.23883
N          N       0.76816   0.50000   0.76117
N          N       0.73147   0.26088   0.50000
N          N       0.26853   0.73912   0.50000
N          N       0.26853   0.26088   0.50000
N          N       0.73147   0.73912   0.50000
N          N       0.50000   0.73147   0.26088
N          N       0.50000   0.26853   0.73912
N          N       0.50000   0.26853   0.26088
N          N       0.50000   0.73147   0.73912
N          N       0.26088   0.50000   0.73147
N          N       0.73912   0.50000   0.26853
N          N       0.26088   0.50000   0.26853
N          N       0.73912   0.50000   0.73147
N          N       0.26047   0.75895   0.00000
N          N       0.73953   0.24105   0.00000
N          N       0.73953   0.75895   0.00000
N          N       0.26047   0.24105   0.00000
N          N       0.00000   0.26047   0.75895
N          N       0.00000   0.73953   0.24105
N          N       0.00000   0.73953   0.75895
N          N       0.00000   0.26047   0.24105
N          N       0.75895   0.00000   0.26047
N          N       0.24105   0.00000   0.73953
N          N       0.75895   0.00000   0.73953
N          N       0.24105   0.00000   0.26047
N          N       0.22968   0.73106   0.00000
N          N       0.77032   0.26894   0.00000
N          N       0.77032   0.73106   0.00000
N          N       0.22968   0.26894   0.00000
N          N       0.00000   0.22968   0.73106
N          N       0.00000   0.77032   0.26894
N          N       0.00000   0.77032   0.73106
N          N       0.00000   0.22968   0.26894
N          N       0.73106   0.00000   0.22968
N          N       0.26894   0.00000   0.77032
N          N       0.73106   0.00000   0.77032
N          N       0.26894   0.00000   0.22968
N          N       0.34357   0.65643   0.34357
N          N       0.65643   0.34357   0.34357
N          N       0.65643   0.65643   0.65643
N          N       0.34357   0.34357   0.65643
N          N       0.65643   0.34357   0.65643
N          N       0.34357   0.65643   0.65643
N          N       0.34357   0.34357   0.34357
N          N       0.65643   0.65643   0.34357
