data_crystal

_cell_length_a    95.24590
_cell_length_b    95.24590
_cell_length_c    95.24590
_cell_angle_alpha 90.00000
_cell_angle_beta  90.00000
_cell_angle_gamma 90.00000

_symmetry_space_group_name_Hall 'P 1'
_symmetry_space_group_name_H-M  'P 1'

loop_
_symmetry_equiv_pos_as_xyz
 'x,y,z'

loop_
_atom_site_label
_atom_site_type_symbol
_atom_site_fract_x
_atom_site_fract_y
_atom_site_fract_z
C          C       0.27643   0.72864   0.46505
C          C       0.72357   0.27136   0.46505
C          C       0.72357   0.72864   0.53495
C          C       0.27643   0.27136   0.53495
C          C       0.46505   0.27643   0.72864
C          C       0.46505   0.72357   0.27136
C          C       0.53495   0.72357   0.72864
C          C       0.53495   0.27643   0.27136
C          C       0.72864   0.46505   0.27643
C          C       0.27136   0.46505   0.72357
C          C       0.72864   0.53495   0.72357
C          C       0.27136   0.53495   0.27643
C          C       0.72357   0.27136   0.53495
C          C       0.27643   0.72864   0.53495
C          C       0.27643   0.27136   0.46505
C          C       0.72357   0.72864   0.46505
C          C       0.53495   0.72357   0.27136
C          C       0.53495   0.27643   0.72864
C          C       0.46505   0.27643   0.27136
C          C       0.46505   0.72357   0.72864
C          C       0.27136   0.53495   0.72357
C          C       0.72864   0.53495   0.27643
C          C       0.27136   0.46505   0.27643
C          C       0.72864   0.46505   0.72357
C          C       0.27722   0.71413   0.46428
C          C       0.72278   0.28587   0.46428
C          C       0.72278   0.71413   0.53572
C          C       0.27722   0.28587   0.53572
C          C       0.46428   0.27722   0.71413
C          C       0.46428   0.72278   0.28587
C          C       0.53572   0.72278   0.71413
C          C       0.53572   0.27722   0.28587
C          C       0.71413   0.46428   0.27722
C          C       0.28587   0.46428   0.72278
C          C       0.71413   0.53572   0.72278
C          C       0.28587   0.53572   0.27722
C          C       0.72278   0.28587   0.53572
C          C       0.27722   0.71413   0.53572
C          C       0.27722   0.28587   0.46428
C          C       0.72278   0.71413   0.46428
C          C       0.53572   0.72278   0.28587
C          C       0.53572   0.27722   0.71413
C          C       0.46428   0.27722   0.28587
C          C       0.46428   0.72278   0.71413
C          C       0.28587   0.53572   0.72278
C          C       0.71413   0.53572   0.27722
C          C       0.28587   0.46428   0.27722
C          C       0.71413   0.46428   0.72278
C          C       0.28441   0.70780   0.45337
C          C       0.71559   0.29220   0.45337
C          C       0.71559   0.70780   0.54663
C          C       0.28441   0.29220   0.54663
C          C       0.45337   0.28441   0.70780
C          C       0.45337   0.71559   0.29220
C          C       0.54663   0.71559   0.70780
C          C       0.54663   0.28441   0.29220
C          C       0.70780   0.45337   0.28441
C          C       0.29220   0.45337   0.71559
C          C       0.70780   0.54663   0.71559
C          C       0.29220   0.54663   0.28441
C          C       0.71559   0.29220   0.54663
C          C       0.28441   0.70780   0.54663
C          C       0.28441   0.29220   0.45337
C          C       0.71559   0.70780   0.45337
C          C       0.54663   0.71559   0.29220
C          C       0.54663   0.28441   0.70780
C          C       0.45337   0.28441   0.29220
C          C       0.45337   0.71559   0.70780
C          C       0.29220   0.54663   0.71559
C          C       0.70780   0.54663   0.28441
C          C       0.29220   0.45337   0.28441
C          C       0.70780   0.45337   0.71559
C          C       0.29062   0.71585   0.44298
C          C       0.70938   0.28415   0.44298
C          C       0.70938   0.71585   0.55702
C          C       0.29062   0.28415   0.55702
C          C       0.44298   0.29062   0.71585
C          C       0.44298   0.70938   0.28415
C          C       0.55702   0.70938   0.71585
C          C       0.55702   0.29062   0.28415
C          C       0.71585   0.44298   0.29062
C          C       0.28415   0.44298   0.70938
C          C       0.71585   0.55702   0.70938
C          C       0.28415   0.55702   0.29062
C          C       0.70938   0.28415   0.55702
C          C       0.29062   0.71585   0.55702
C          C       0.29062   0.28415   0.44298
C          C       0.70938   0.71585   0.44298
C          C       0.55702   0.70938   0.28415
C          C       0.55702   0.29062   0.71585
C          C       0.44298   0.29062   0.28415
C          C       0.44298   0.70938   0.71585
C          C       0.28415   0.55702   0.70938
C          C       0.71585   0.55702   0.29062
C          C       0.28415   0.44298   0.29062
C          C       0.71585   0.44298   0.70938
C          C       0.29014   0.73043   0.44400
C          C       0.70986   0.26957   0.44400
C          C       0.70986   0.73043   0.55600
C          C       0.29014   0.26957   0.55600
C          C       0.44400   0.29014   0.73043
C          C       0.44400   0.70986   0.26957
C          C       0.55600   0.70986   0.73043
C          C       0.55600   0.29014   0.26957
C          C       0.73043   0.44400   0.29014
C          C       0.26957   0.44400   0.70986
C          C       0.73043   0.55600   0.70986
C          C       0.26957   0.55600   0.29014
C          C       0.70986   0.26957   0.55600
C          C       0.29014   0.73043   0.55600
C          C       0.29014   0.26957   0.44400
C          C       0.70986   0.73043   0.44400
C          C       0.55600   0.70986   0.26957
C          C       0.55600   0.29014   0.73043
C          C       0.44400   0.29014   0.26957
C          C       0.44400   0.70986   0.73043
C          C       0.26957   0.55600   0.70986
C          C       0.73043   0.55600   0.29014
C          C       0.26957   0.44400   0.29014
C          C       0.73043   0.44400   0.70986
C          C       0.28309   0.73676   0.45498
C          C       0.71691   0.26324   0.45498
C          C       0.71691   0.73676   0.54502
C          C       0.28309   0.26324   0.54502
C          C       0.45498   0.28309   0.73676
C          C       0.45498   0.71691   0.26324
C          C       0.54502   0.71691   0.73676
C          C       0.54502   0.28309   0.26324
C          C       0.73676   0.45498   0.28309
C          C       0.26324   0.45498   0.71691
C          C       0.73676   0.54502   0.71691
C          C       0.26324   0.54502   0.28309
C          C       0.71691   0.26324   0.54502
C          C       0.28309   0.73676   0.54502
C          C       0.28309   0.26324   0.45498
C          C       0.71691   0.73676   0.45498
C          C       0.54502   0.71691   0.26324
C          C       0.54502   0.28309   0.73676
C          C       0.45498   0.28309   0.26324
C          C       0.45498   0.71691   0.73676
C          C       0.26324   0.54502   0.71691
C          C       0.73676   0.54502   0.28309
C          C       0.26324   0.45498   0.28309
C          C       0.73676   0.45498   0.71691
N          N       0.29732   0.70893   0.43159
N          N       0.70268   0.29107   0.43159
N          N       0.70268   0.70893   0.56841
N          N       0.29732   0.29107   0.56841
N          N       0.43159   0.29732   0.70893
N          N       0.43159   0.70268   0.29107
N          N       0.56841   0.70268   0.70893
N          N       0.56841   0.29732   0.29107
N          N       0.70893   0.43159   0.29732
N          N       0.29107   0.43159   0.70268
N          N       0.70893   0.56841   0.70268
N          N       0.29107   0.56841   0.29732
N          N       0.70268   0.29107   0.56841
N          N       0.29732   0.70893   0.56841
N          N       0.29732   0.29107   0.43159
N          N       0.70268   0.70893   0.43159
N          N       0.56841   0.70268   0.29107
N          N       0.56841   0.29732   0.70893
N          N       0.43159   0.29732   0.29107
N          N       0.43159   0.70268   0.70893
N          N       0.29107   0.56841   0.70268
N          N       0.70893   0.56841   0.29732
N          N       0.29107   0.43159   0.29732
N          N       0.70893   0.43159   0.70268
C          C       0.29868   0.71411   0.41920
C          C       0.70132   0.28589   0.41920
C          C       0.70132   0.71411   0.58080
C          C       0.29868   0.28589   0.58080
C          C       0.41920   0.29868   0.71411
C          C       0.41920   0.70132   0.28589
C          C       0.58080   0.70132   0.71411
C          C       0.58080   0.29868   0.28589
C          C       0.71411   0.41920   0.29868
C          C       0.28589   0.41920   0.70132
C          C       0.71411   0.58080   0.70132
C          C       0.28589   0.58080   0.29868
C          C       0.70132   0.28589   0.58080
C          C       0.29868   0.71411   0.58080
C          C       0.29868   0.28589   0.41920
C          C       0.70132   0.71411   0.41920
C          C       0.58080   0.70132   0.28589
C          C       0.58080   0.29868   0.71411
C          C       0.41920   0.29868   0.28589
C          C       0.41920   0.70132   0.71411
C          C       0.28589   0.58080   0.70132
C          C       0.71411   0.58080   0.29868
C          C       0.28589   0.41920   0.29868
C          C       0.71411   0.41920   0.70132
C          C       0.30547   0.70617   0.40800
C          C       0.69453   0.29383   0.40800
C          C       0.69453   0.70617   0.59200
C          C       0.30547   0.29383   0.59200
C          C       0.40800   0.30547   0.70617
C          C       0.40800   0.69453   0.29383
C          C       0.59200   0.69453   0.70617
C          C       0.59200   0.30547   0.29383
C          C       0.70617   0.40800   0.30547
C          C       0.29383   0.40800   0.69453
C          C       0.70617   0.59200   0.69453
C          C       0.29383   0.59200   0.30547
C          C       0.69453   0.29383   0.59200
C          C       0.30547   0.70617   0.59200
C          C       0.30547   0.29383   0.40800
C          C       0.69453   0.70617   0.40800
C          C       0.59200   0.69453   0.29383
C          C       0.59200   0.30547   0.70617
C          C       0.40800   0.30547   0.29383
C          C       0.40800   0.69453   0.70617
C          C       0.29383   0.59200   0.69453
C          C       0.70617   0.59200   0.30547
C          C       0.29383   0.40800   0.30547
C          C       0.70617   0.40800   0.69453
C          C       0.30429   0.71085   0.39427
C          C       0.69571   0.28915   0.39427
C          C       0.69571   0.71085   0.60573
C          C       0.30429   0.28915   0.60573
C          C       0.39427   0.30429   0.71085
C          C       0.39427   0.69571   0.28915
C          C       0.60573   0.69571   0.71085
C          C       0.60573   0.30429   0.28915
C          C       0.71085   0.39427   0.30429
C          C       0.28915   0.39427   0.69571
C          C       0.71085   0.60573   0.69571
C          C       0.28915   0.60573   0.30429
C          C       0.69571   0.28915   0.60573
C          C       0.30429   0.71085   0.60573
C          C       0.30429   0.28915   0.39427
C          C       0.69571   0.71085   0.39427
C          C       0.60573   0.69571   0.28915
C          C       0.60573   0.30429   0.71085
C          C       0.39427   0.30429   0.28915
C          C       0.39427   0.69571   0.71085
C          C       0.28915   0.60573   0.69571
C          C       0.71085   0.60573   0.30429
C          C       0.28915   0.39427   0.30429
C          C       0.71085   0.39427   0.69571
C          C       0.31033   0.70339   0.38340
C          C       0.68967   0.29661   0.38340
C          C       0.68967   0.70339   0.61660
C          C       0.31033   0.29661   0.61660
C          C       0.38340   0.31033   0.70339
C          C       0.38340   0.68967   0.29661
C          C       0.61660   0.68967   0.70339
C          C       0.61660   0.31033   0.29661
C          C       0.70339   0.38340   0.31033
C          C       0.29661   0.38340   0.68967
C          C       0.70339   0.61660   0.68967
C          C       0.29661   0.61660   0.31033
C          C       0.68967   0.29661   0.61660
C          C       0.31033   0.70339   0.61660
C          C       0.31033   0.29661   0.38340
C          C       0.68967   0.70339   0.38340
C          C       0.61660   0.68967   0.29661
C          C       0.61660   0.31033   0.70339
C          C       0.38340   0.31033   0.29661
C          C       0.38340   0.68967   0.70339
C          C       0.29661   0.61660   0.68967
C          C       0.70339   0.61660   0.31033
C          C       0.29661   0.38340   0.31033
C          C       0.70339   0.38340   0.68967
C          C       0.31785   0.69114   0.38605
C          C       0.68215   0.30886   0.38605
C          C       0.68215   0.69114   0.61395
C          C       0.31785   0.30886   0.61395
C          C       0.38605   0.31785   0.69114
C          C       0.38605   0.68215   0.30886
C          C       0.61395   0.68215   0.69114
C          C       0.61395   0.31785   0.30886
C          C       0.69114   0.38605   0.31785
C          C       0.30886   0.38605   0.68215
C          C       0.69114   0.61395   0.68215
C          C       0.30886   0.61395   0.31785
C          C       0.68215   0.30886   0.61395
C          C       0.31785   0.69114   0.61395
C          C       0.31785   0.30886   0.38605
C          C       0.68215   0.69114   0.38605
C          C       0.61395   0.68215   0.30886
C          C       0.61395   0.31785   0.69114
C          C       0.38605   0.31785   0.30886
C          C       0.38605   0.68215   0.69114
C          C       0.30886   0.61395   0.68215
C          C       0.69114   0.61395   0.31785
C          C       0.30886   0.38605   0.31785
C          C       0.69114   0.38605   0.68215
C          C       0.31915   0.68656   0.39986
C          C       0.68085   0.31344   0.39986
C          C       0.68085   0.68656   0.60014
C          C       0.31915   0.31344   0.60014
C          C       0.39986   0.31915   0.68656
C          C       0.39986   0.68085   0.31344
C          C       0.60014   0.68085   0.68656
C          C       0.60014   0.31915   0.31344
C          C       0.68656   0.39986   0.31915
C          C       0.31344   0.39986   0.68085
C          C       0.68656   0.60014   0.68085
C          C       0.31344   0.60014   0.31915
C          C       0.68085   0.31344   0.60014
C          C       0.31915   0.68656   0.60014
C          C       0.31915   0.31344   0.39986
C          C       0.68085   0.68656   0.39986
C          C       0.60014   0.68085   0.31344
C          C       0.60014   0.31915   0.68656
C          C       0.39986   0.31915   0.31344
C          C       0.39986   0.68085   0.68656
C          C       0.31344   0.60014   0.68085
C          C       0.68656   0.60014   0.31915
C          C       0.31344   0.39986   0.31915
C          C       0.68656   0.39986   0.68085
C          C       0.31298   0.69396   0.41073
C          C       0.68702   0.30604   0.41073
C          C       0.68702   0.69396   0.58927
C          C       0.31298   0.30604   0.58927
C          C       0.41073   0.31298   0.69396
C          C       0.41073   0.68702   0.30604
C          C       0.58927   0.68702   0.69396
C          C       0.58927   0.31298   0.30604
C          C       0.69396   0.41073   0.31298
C          C       0.30604   0.41073   0.68702
C          C       0.69396   0.58927   0.68702
C          C       0.30604   0.58927   0.31298
C          C       0.68702   0.30604   0.58927
C          C       0.31298   0.69396   0.58927
C          C       0.31298   0.30604   0.41073
C          C       0.68702   0.69396   0.41073
C          C       0.58927   0.68702   0.30604
C          C       0.58927   0.31298   0.69396
C          C       0.41073   0.31298   0.30604
C          C       0.41073   0.68702   0.69396
C          C       0.30604   0.58927   0.68702
C          C       0.69396   0.58927   0.31298
C          C       0.30604   0.41073   0.31298
C          C       0.69396   0.41073   0.68702
C          C       0.32409   0.68314   0.37439
C          C       0.67591   0.31686   0.37439
C          C       0.67591   0.68314   0.62561
C          C       0.32409   0.31686   0.62561
C          C       0.37439   0.32409   0.68314
C          C       0.37439   0.67591   0.31686
C          C       0.62561   0.67591   0.68314
C          C       0.62561   0.32409   0.31686
C          C       0.68314   0.37439   0.32409
C          C       0.31686   0.37439   0.67591
C          C       0.68314   0.62561   0.67591
C          C       0.31686   0.62561   0.32409
C          C       0.67591   0.31686   0.62561
C          C       0.32409   0.68314   0.62561
C          C       0.32409   0.31686   0.37439
C          C       0.67591   0.68314   0.37439
C          C       0.62561   0.67591   0.31686
C          C       0.62561   0.32409   0.68314
C          C       0.37439   0.32409   0.31686
C          C       0.37439   0.67591   0.68314
C          C       0.31686   0.62561   0.67591
C          C       0.68314   0.62561   0.32409
C          C       0.31686   0.37439   0.32409
C          C       0.68314   0.37439   0.67591
C          C       0.32968   0.69004   0.36280
C          C       0.67032   0.30996   0.36280
C          C       0.67032   0.69004   0.63720
C          C       0.32968   0.30996   0.63720
C          C       0.36280   0.32968   0.69004
C          C       0.36280   0.67032   0.30996
C          C       0.63720   0.67032   0.69004
C          C       0.63720   0.32968   0.30996
C          C       0.69004   0.36280   0.32968
C          C       0.30996   0.36280   0.67032
C          C       0.69004   0.63720   0.67032
C          C       0.30996   0.63720   0.32968
C          C       0.67032   0.30996   0.63720
C          C       0.32968   0.69004   0.63720
C          C       0.32968   0.30996   0.36280
C          C       0.67032   0.69004   0.36280
C          C       0.63720   0.67032   0.30996
C          C       0.63720   0.32968   0.69004
C          C       0.36280   0.32968   0.30996
C          C       0.36280   0.67032   0.69004
C          C       0.30996   0.63720   0.67032
C          C       0.69004   0.63720   0.32968
C          C       0.30996   0.36280   0.32968
C          C       0.69004   0.36280   0.67032
C          C       0.33491   0.68255   0.35155
C          C       0.66509   0.31745   0.35155
C          C       0.66509   0.68255   0.64845
C          C       0.33491   0.31745   0.64845
C          C       0.35155   0.33491   0.68255
C          C       0.35155   0.66509   0.31745
C          C       0.64845   0.66509   0.68255
C          C       0.64845   0.33491   0.31745
C          C       0.68255   0.35155   0.33491
C          C       0.31745   0.35155   0.66509
C          C       0.68255   0.64845   0.66509
C          C       0.31745   0.64845   0.33491
C          C       0.66509   0.31745   0.64845
C          C       0.33491   0.68255   0.64845
C          C       0.33491   0.31745   0.35155
C          C       0.66509   0.68255   0.35155
C          C       0.64845   0.66509   0.31745
C          C       0.64845   0.33491   0.68255
C          C       0.35155   0.33491   0.31745
C          C       0.35155   0.66509   0.68255
C          C       0.31745   0.64845   0.66509
C          C       0.68255   0.64845   0.33491
C          C       0.31745   0.35155   0.33491
C          C       0.68255   0.35155   0.66509
C          C       0.33487   0.66797   0.35168
C          C       0.66513   0.33203   0.35168
C          C       0.66513   0.66797   0.64832
C          C       0.33487   0.33203   0.64832
C          C       0.35168   0.33487   0.66797
C          C       0.35168   0.66513   0.33203
C          C       0.64832   0.66513   0.66797
C          C       0.64832   0.33487   0.33203
C          C       0.66797   0.35168   0.33487
C          C       0.33203   0.35168   0.66513
C          C       0.66797   0.64832   0.66513
C          C       0.33203   0.64832   0.33487
C          C       0.66513   0.33203   0.64832
C          C       0.33487   0.66797   0.64832
C          C       0.33487   0.33203   0.35168
C          C       0.66513   0.66797   0.35168
C          C       0.64832   0.66513   0.33203
C          C       0.64832   0.33487   0.66797
C          C       0.35168   0.33487   0.33203
C          C       0.35168   0.66513   0.66797
C          C       0.33203   0.64832   0.66513
C          C       0.66797   0.64832   0.33487
C          C       0.33203   0.35168   0.33487
C          C       0.66797   0.35168   0.66513
C          C       0.32960   0.66104   0.36338
C          C       0.67040   0.33896   0.36338
C          C       0.67040   0.66104   0.63662
C          C       0.32960   0.33896   0.63662
C          C       0.36338   0.32960   0.66104
C          C       0.36338   0.67040   0.33896
C          C       0.63662   0.67040   0.66104
C          C       0.63662   0.32960   0.33896
C          C       0.66104   0.36338   0.32960
C          C       0.33896   0.36338   0.67040
C          C       0.66104   0.63662   0.67040
C          C       0.33896   0.63662   0.32960
C          C       0.67040   0.33896   0.63662
C          C       0.32960   0.66104   0.63662
C          C       0.32960   0.33896   0.36338
C          C       0.67040   0.66104   0.36338
C          C       0.63662   0.67040   0.33896
C          C       0.63662   0.32960   0.66104
C          C       0.36338   0.32960   0.33896
C          C       0.36338   0.67040   0.66104
C          C       0.33896   0.63662   0.67040
C          C       0.66104   0.63662   0.32960
C          C       0.33896   0.36338   0.32960
C          C       0.66104   0.36338   0.67040
C          C       0.32421   0.66853   0.37458
C          C       0.67579   0.33147   0.37458
C          C       0.67579   0.66853   0.62542
C          C       0.32421   0.33147   0.62542
C          C       0.37458   0.32421   0.66853
C          C       0.37458   0.67579   0.33147
C          C       0.62542   0.67579   0.66853
C          C       0.62542   0.32421   0.33147
C          C       0.66853   0.37458   0.32421
C          C       0.33147   0.37458   0.67579
C          C       0.66853   0.62542   0.67579
C          C       0.33147   0.62542   0.32421
C          C       0.67579   0.33147   0.62542
C          C       0.32421   0.66853   0.62542
C          C       0.32421   0.33147   0.37458
C          C       0.67579   0.66853   0.37458
C          C       0.62542   0.67579   0.33147
C          C       0.62542   0.32421   0.66853
C          C       0.37458   0.32421   0.33147
C          C       0.37458   0.67579   0.66853
C          C       0.33147   0.62542   0.67579
C          C       0.66853   0.62542   0.32421
C          C       0.33147   0.37458   0.32421
C          C       0.66853   0.37458   0.67579
C          C       0.77581   0.22602   0.46508
C          C       0.22419   0.77398   0.46508
C          C       0.22419   0.22602   0.53492
C          C       0.77581   0.77398   0.53492
C          C       0.46508   0.77581   0.22602
C          C       0.46508   0.22419   0.77398
C          C       0.53492   0.22419   0.22602
C          C       0.53492   0.77581   0.77398
C          C       0.22602   0.46508   0.77581
C          C       0.77398   0.46508   0.22419
C          C       0.22602   0.53492   0.22419
C          C       0.77398   0.53492   0.77581
C          C       0.22419   0.77398   0.53492
C          C       0.77581   0.22602   0.53492
C          C       0.77581   0.77398   0.46508
C          C       0.22419   0.22602   0.46508
C          C       0.53492   0.22419   0.77398
C          C       0.53492   0.77581   0.22602
C          C       0.46508   0.77581   0.77398
C          C       0.46508   0.22419   0.22602
C          C       0.77398   0.53492   0.22419
C          C       0.22602   0.53492   0.77581
C          C       0.77398   0.46508   0.77581
C          C       0.22602   0.46508   0.22419
C          C       0.77022   0.21427   0.45857
C          C       0.22978   0.78573   0.45857
C          C       0.22978   0.21427   0.54143
C          C       0.77022   0.78573   0.54143
C          C       0.45857   0.77022   0.21427
C          C       0.45857   0.22978   0.78573
C          C       0.54143   0.22978   0.21427
C          C       0.54143   0.77022   0.78573
C          C       0.21427   0.45857   0.77022
C          C       0.78573   0.45857   0.22978
C          C       0.21427   0.54143   0.22978
C          C       0.78573   0.54143   0.77022
C          C       0.22978   0.78573   0.54143
C          C       0.77022   0.21427   0.54143
C          C       0.77022   0.78573   0.45857
C          C       0.22978   0.21427   0.45857
C          C       0.54143   0.22978   0.78573
C          C       0.54143   0.77022   0.21427
C          C       0.45857   0.77022   0.78573
C          C       0.45857   0.22978   0.21427
C          C       0.78573   0.54143   0.22978
C          C       0.21427   0.54143   0.77022
C          C       0.78573   0.45857   0.77022
C          C       0.21427   0.45857   0.22978
C          C       0.77756   0.20758   0.44800
C          C       0.22244   0.79242   0.44800
C          C       0.22244   0.20758   0.55200
C          C       0.77756   0.79242   0.55200
C          C       0.44800   0.77756   0.20758
C          C       0.44800   0.22244   0.79242
C          C       0.55200   0.22244   0.20758
C          C       0.55200   0.77756   0.79242
C          C       0.20758   0.44800   0.77756
C          C       0.79242   0.44800   0.22244
C          C       0.20758   0.55200   0.22244
C          C       0.79242   0.55200   0.77756
C          C       0.22244   0.79242   0.55200
C          C       0.77756   0.20758   0.55200
C          C       0.77756   0.79242   0.44800
C          C       0.22244   0.20758   0.44800
C          C       0.55200   0.22244   0.79242
C          C       0.55200   0.77756   0.20758
C          C       0.44800   0.77756   0.79242
C          C       0.44800   0.22244   0.20758
C          C       0.79242   0.55200   0.22244
C          C       0.20758   0.55200   0.77756
C          C       0.79242   0.44800   0.77756
C          C       0.20758   0.44800   0.22244
C          C       0.79055   0.21252   0.44371
C          C       0.20945   0.78748   0.44371
C          C       0.20945   0.21252   0.55629
C          C       0.79055   0.78748   0.55629
C          C       0.44371   0.79055   0.21252
C          C       0.44371   0.20945   0.78748
C          C       0.55629   0.20945   0.21252
C          C       0.55629   0.79055   0.78748
C          C       0.21252   0.44371   0.79055
C          C       0.78748   0.44371   0.20945
C          C       0.21252   0.55629   0.20945
C          C       0.78748   0.55629   0.79055
C          C       0.20945   0.78748   0.55629
C          C       0.79055   0.21252   0.55629
C          C       0.79055   0.78748   0.44371
C          C       0.20945   0.21252   0.44371
C          C       0.55629   0.20945   0.78748
C          C       0.55629   0.79055   0.21252
C          C       0.44371   0.79055   0.78748
C          C       0.44371   0.20945   0.21252
C          C       0.78748   0.55629   0.20945
C          C       0.21252   0.55629   0.79055
C          C       0.78748   0.44371   0.79055
C          C       0.21252   0.44371   0.20945
C          C       0.79626   0.22423   0.45041
C          C       0.20374   0.77577   0.45041
C          C       0.20374   0.22423   0.54959
C          C       0.79626   0.77577   0.54959
C          C       0.45041   0.79626   0.22423
C          C       0.45041   0.20374   0.77577
C          C       0.54959   0.20374   0.22423
C          C       0.54959   0.79626   0.77577
C          C       0.22423   0.45041   0.79626
C          C       0.77577   0.45041   0.20374
C          C       0.22423   0.54959   0.20374
C          C       0.77577   0.54959   0.79626
C          C       0.20374   0.77577   0.54959
C          C       0.79626   0.22423   0.54959
C          C       0.79626   0.77577   0.45041
C          C       0.20374   0.22423   0.45041
C          C       0.54959   0.20374   0.77577
C          C       0.54959   0.79626   0.22423
C          C       0.45041   0.79626   0.77577
C          C       0.45041   0.20374   0.22423
C          C       0.77577   0.54959   0.20374
C          C       0.22423   0.54959   0.79626
C          C       0.77577   0.45041   0.79626
C          C       0.22423   0.45041   0.20374
C          C       0.78890   0.23091   0.46100
C          C       0.21110   0.76909   0.46100
C          C       0.21110   0.23091   0.53900
C          C       0.78890   0.76909   0.53900
C          C       0.46100   0.78890   0.23091
C          C       0.46100   0.21110   0.76909
C          C       0.53900   0.21110   0.23091
C          C       0.53900   0.78890   0.76909
C          C       0.23091   0.46100   0.78890
C          C       0.76909   0.46100   0.21110
C          C       0.23091   0.53900   0.21110
C          C       0.76909   0.53900   0.78890
C          C       0.21110   0.76909   0.53900
C          C       0.78890   0.23091   0.53900
C          C       0.78890   0.76909   0.46100
C          C       0.21110   0.23091   0.46100
C          C       0.53900   0.21110   0.76909
C          C       0.53900   0.78890   0.23091
C          C       0.46100   0.78890   0.76909
C          C       0.46100   0.21110   0.23091
C          C       0.76909   0.53900   0.21110
C          C       0.23091   0.53900   0.78890
C          C       0.76909   0.46100   0.78890
C          C       0.23091   0.46100   0.21110
N          N       0.79744   0.20532   0.43259
N          N       0.20256   0.79468   0.43259
N          N       0.20256   0.20532   0.56741
N          N       0.79744   0.79468   0.56741
N          N       0.43259   0.79744   0.20532
N          N       0.43259   0.20256   0.79468
N          N       0.56741   0.20256   0.20532
N          N       0.56741   0.79744   0.79468
N          N       0.20532   0.43259   0.79744
N          N       0.79468   0.43259   0.20256
N          N       0.20532   0.56741   0.20256
N          N       0.79468   0.56741   0.79744
N          N       0.20256   0.79468   0.56741
N          N       0.79744   0.20532   0.56741
N          N       0.79744   0.79468   0.43259
N          N       0.20256   0.20532   0.43259
N          N       0.56741   0.20256   0.79468
N          N       0.56741   0.79744   0.20532
N          N       0.43259   0.79744   0.79468
N          N       0.43259   0.20256   0.20532
N          N       0.79468   0.56741   0.20256
N          N       0.20532   0.56741   0.79744
N          N       0.79468   0.43259   0.79744
N          N       0.20532   0.43259   0.20256
C          C       0.80874   0.20906   0.42623
C          C       0.19126   0.79094   0.42623
C          C       0.19126   0.20906   0.57377
C          C       0.80874   0.79094   0.57377
C          C       0.42623   0.80874   0.20906
C          C       0.42623   0.19126   0.79094
C          C       0.57377   0.19126   0.20906
C          C       0.57377   0.80874   0.79094
C          C       0.20906   0.42623   0.80874
C          C       0.79094   0.42623   0.19126
C          C       0.20906   0.57377   0.19126
C          C       0.79094   0.57377   0.80874
C          C       0.19126   0.79094   0.57377
C          C       0.80874   0.20906   0.57377
C          C       0.80874   0.79094   0.42623
C          C       0.19126   0.20906   0.42623
C          C       0.57377   0.19126   0.79094
C          C       0.57377   0.80874   0.20906
C          C       0.42623   0.80874   0.79094
C          C       0.42623   0.19126   0.20906
C          C       0.79094   0.57377   0.19126
C          C       0.20906   0.57377   0.80874
C          C       0.79094   0.42623   0.80874
C          C       0.20906   0.42623   0.19126
C          C       0.81439   0.20065   0.41472
C          C       0.18561   0.79935   0.41472
C          C       0.18561   0.20065   0.58528
C          C       0.81439   0.79935   0.58528
C          C       0.41472   0.81439   0.20065
C          C       0.41472   0.18561   0.79935
C          C       0.58528   0.18561   0.20065
C          C       0.58528   0.81439   0.79935
C          C       0.20065   0.41472   0.81439
C          C       0.79935   0.41472   0.18561
C          C       0.20065   0.58528   0.18561
C          C       0.79935   0.58528   0.81439
C          C       0.18561   0.79935   0.58528
C          C       0.81439   0.20065   0.58528
C          C       0.81439   0.79935   0.41472
C          C       0.18561   0.20065   0.41472
C          C       0.58528   0.18561   0.79935
C          C       0.58528   0.81439   0.20065
C          C       0.41472   0.81439   0.79935
C          C       0.41472   0.18561   0.20065
C          C       0.79935   0.58528   0.18561
C          C       0.20065   0.58528   0.81439
C          C       0.79935   0.41472   0.81439
C          C       0.20065   0.41472   0.18561
C          C       0.82634   0.20518   0.40774
C          C       0.17366   0.79482   0.40774
C          C       0.17366   0.20518   0.59226
C          C       0.82634   0.79482   0.59226
C          C       0.40774   0.82634   0.20518
C          C       0.40774   0.17366   0.79482
C          C       0.59226   0.17366   0.20518
C          C       0.59226   0.82634   0.79482
C          C       0.20518   0.40774   0.82634
C          C       0.79482   0.40774   0.17366
C          C       0.20518   0.59226   0.17366
C          C       0.79482   0.59226   0.82634
C          C       0.17366   0.79482   0.59226
C          C       0.82634   0.20518   0.59226
C          C       0.82634   0.79482   0.40774
C          C       0.17366   0.20518   0.40774
C          C       0.59226   0.17366   0.79482
C          C       0.59226   0.82634   0.20518
C          C       0.40774   0.82634   0.79482
C          C       0.40774   0.17366   0.20518
C          C       0.79482   0.59226   0.17366
C          C       0.20518   0.59226   0.82634
C          C       0.79482   0.40774   0.82634
C          C       0.20518   0.40774   0.17366
C          C       0.83168   0.19759   0.39659
C          C       0.16832   0.80241   0.39659
C          C       0.16832   0.19759   0.60341
C          C       0.83168   0.80241   0.60341
C          C       0.39659   0.83168   0.19759
C          C       0.39659   0.16832   0.80241
C          C       0.60341   0.16832   0.19759
C          C       0.60341   0.83168   0.80241
C          C       0.19759   0.39659   0.83168
C          C       0.80241   0.39659   0.16832
C          C       0.19759   0.60341   0.16832
C          C       0.80241   0.60341   0.83168
C          C       0.16832   0.80241   0.60341
C          C       0.83168   0.19759   0.60341
C          C       0.83168   0.80241   0.39659
C          C       0.16832   0.19759   0.39659
C          C       0.60341   0.16832   0.80241
C          C       0.60341   0.83168   0.19759
C          C       0.39659   0.83168   0.80241
C          C       0.39659   0.16832   0.19759
C          C       0.80241   0.60341   0.16832
C          C       0.19759   0.60341   0.83168
C          C       0.80241   0.39659   0.83168
C          C       0.19759   0.39659   0.16832
C          C       0.82517   0.18529   0.39219
C          C       0.17483   0.81471   0.39219
C          C       0.17483   0.18529   0.60781
C          C       0.82517   0.81471   0.60781
C          C       0.39219   0.82517   0.18529
C          C       0.39219   0.17483   0.81471
C          C       0.60781   0.17483   0.18529
C          C       0.60781   0.82517   0.81471
C          C       0.18529   0.39219   0.82517
C          C       0.81471   0.39219   0.17483
C          C       0.18529   0.60781   0.17483
C          C       0.81471   0.60781   0.82517
C          C       0.17483   0.81471   0.60781
C          C       0.82517   0.18529   0.60781
C          C       0.82517   0.81471   0.39219
C          C       0.17483   0.18529   0.39219
C          C       0.60781   0.17483   0.81471
C          C       0.60781   0.82517   0.18529
C          C       0.39219   0.82517   0.81471
C          C       0.39219   0.17483   0.18529
C          C       0.81471   0.60781   0.17483
C          C       0.18529   0.60781   0.82517
C          C       0.81471   0.39219   0.82517
C          C       0.18529   0.39219   0.17483
C          C       0.81327   0.18068   0.39930
C          C       0.18673   0.81932   0.39930
C          C       0.18673   0.18068   0.60070
C          C       0.81327   0.81932   0.60070
C          C       0.39930   0.81327   0.18068
C          C       0.39930   0.18673   0.81932
C          C       0.60070   0.18673   0.18068
C          C       0.60070   0.81327   0.81932
C          C       0.18068   0.39930   0.81327
C          C       0.81932   0.39930   0.18673
C          C       0.18068   0.60070   0.18673
C          C       0.81932   0.60070   0.81327
C          C       0.18673   0.81932   0.60070
C          C       0.81327   0.18068   0.60070
C          C       0.81327   0.81932   0.39930
C          C       0.18673   0.18068   0.39930
C          C       0.60070   0.18673   0.81932
C          C       0.60070   0.81327   0.18068
C          C       0.39930   0.81327   0.81932
C          C       0.39930   0.18673   0.18068
C          C       0.81932   0.60070   0.18673
C          C       0.18068   0.60070   0.81327
C          C       0.81932   0.39930   0.81327
C          C       0.18068   0.39930   0.18673
C          C       0.80793   0.18829   0.41044
C          C       0.19207   0.81171   0.41044
C          C       0.19207   0.18829   0.58956
C          C       0.80793   0.81171   0.58956
C          C       0.41044   0.80793   0.18829
C          C       0.41044   0.19207   0.81171
C          C       0.58956   0.19207   0.18829
C          C       0.58956   0.80793   0.81171
C          C       0.18829   0.41044   0.80793
C          C       0.81171   0.41044   0.19207
C          C       0.18829   0.58956   0.19207
C          C       0.81171   0.58956   0.80793
C          C       0.19207   0.81171   0.58956
C          C       0.80793   0.18829   0.58956
C          C       0.80793   0.81171   0.41044
C          C       0.19207   0.18829   0.41044
C          C       0.58956   0.19207   0.81171
C          C       0.58956   0.80793   0.18829
C          C       0.41044   0.80793   0.81171
C          C       0.41044   0.19207   0.18829
C          C       0.81171   0.58956   0.19207
C          C       0.18829   0.58956   0.80793
C          C       0.81171   0.41044   0.80793
C          C       0.18829   0.41044   0.19207
C          C       0.83061   0.17742   0.38010
C          C       0.16939   0.82258   0.38010
C          C       0.16939   0.17742   0.61990
C          C       0.83061   0.82258   0.61990
C          C       0.38010   0.83061   0.17742
C          C       0.38010   0.16939   0.82258
C          C       0.61990   0.16939   0.17742
C          C       0.61990   0.83061   0.82258
C          C       0.17742   0.38010   0.83061
C          C       0.82258   0.38010   0.16939
C          C       0.17742   0.61990   0.16939
C          C       0.82258   0.61990   0.83061
C          C       0.16939   0.82258   0.61990
C          C       0.83061   0.17742   0.61990
C          C       0.83061   0.82258   0.38010
C          C       0.16939   0.17742   0.38010
C          C       0.61990   0.16939   0.82258
C          C       0.61990   0.83061   0.17742
C          C       0.38010   0.83061   0.82258
C          C       0.38010   0.16939   0.17742
C          C       0.82258   0.61990   0.16939
C          C       0.17742   0.61990   0.83061
C          C       0.82258   0.38010   0.83061
C          C       0.17742   0.38010   0.16939
C          C       0.83528   0.18447   0.36820
C          C       0.16472   0.81553   0.36820
C          C       0.16472   0.18447   0.63180
C          C       0.83528   0.81553   0.63180
C          C       0.36820   0.83528   0.18447
C          C       0.36820   0.16472   0.81553
C          C       0.63180   0.16472   0.18447
C          C       0.63180   0.83528   0.81553
C          C       0.18447   0.36820   0.83528
C          C       0.81553   0.36820   0.16472
C          C       0.18447   0.63180   0.16472
C          C       0.81553   0.63180   0.83528
C          C       0.16472   0.81553   0.63180
C          C       0.83528   0.18447   0.63180
C          C       0.83528   0.81553   0.36820
C          C       0.16472   0.18447   0.36820
C          C       0.63180   0.16472   0.81553
C          C       0.63180   0.83528   0.18447
C          C       0.36820   0.83528   0.81553
C          C       0.36820   0.16472   0.18447
C          C       0.81553   0.63180   0.16472
C          C       0.18447   0.63180   0.83528
C          C       0.81553   0.36820   0.83528
C          C       0.18447   0.36820   0.16472
C          C       0.84012   0.17708   0.35670
C          C       0.15988   0.82292   0.35670
C          C       0.15988   0.17708   0.64330
C          C       0.84012   0.82292   0.64330
C          C       0.35670   0.84012   0.17708
C          C       0.35670   0.15988   0.82292
C          C       0.64330   0.15988   0.17708
C          C       0.64330   0.84012   0.82292
C          C       0.17708   0.35670   0.84012
C          C       0.82292   0.35670   0.15988
C          C       0.17708   0.64330   0.15988
C          C       0.82292   0.64330   0.84012
C          C       0.15988   0.82292   0.64330
C          C       0.84012   0.17708   0.64330
C          C       0.84012   0.82292   0.35670
C          C       0.15988   0.17708   0.35670
C          C       0.64330   0.15988   0.82292
C          C       0.64330   0.84012   0.17708
C          C       0.35670   0.84012   0.82292
C          C       0.35670   0.15988   0.17708
C          C       0.82292   0.64330   0.15988
C          C       0.17708   0.64330   0.84012
C          C       0.82292   0.35670   0.84012
C          C       0.17708   0.35670   0.15988
C          C       0.84042   0.16250   0.35685
C          C       0.15958   0.83750   0.35685
C          C       0.15958   0.16250   0.64315
C          C       0.84042   0.83750   0.64315
C          C       0.35685   0.84042   0.16250
C          C       0.35685   0.15958   0.83750
C          C       0.64315   0.15958   0.16250
C          C       0.64315   0.84042   0.83750
C          C       0.16250   0.35685   0.84042
C          C       0.83750   0.35685   0.15958
C          C       0.16250   0.64315   0.15958
C          C       0.83750   0.64315   0.84042
C          C       0.15958   0.83750   0.64315
C          C       0.84042   0.16250   0.64315
C          C       0.84042   0.83750   0.35685
C          C       0.15958   0.16250   0.35685
C          C       0.64315   0.15958   0.83750
C          C       0.64315   0.84042   0.16250
C          C       0.35685   0.84042   0.83750
C          C       0.35685   0.15958   0.16250
C          C       0.83750   0.64315   0.15958
C          C       0.16250   0.64315   0.84042
C          C       0.83750   0.35685   0.84042
C          C       0.16250   0.35685   0.15958
C          C       0.83585   0.15545   0.36876
C          C       0.16415   0.84455   0.36876
C          C       0.16415   0.15545   0.63124
C          C       0.83585   0.84455   0.63124
C          C       0.36876   0.83585   0.15545
C          C       0.36876   0.16415   0.84455
C          C       0.63124   0.16415   0.15545
C          C       0.63124   0.83585   0.84455
C          C       0.15545   0.36876   0.83585
C          C       0.84455   0.36876   0.16415
C          C       0.15545   0.63124   0.16415
C          C       0.84455   0.63124   0.83585
C          C       0.16415   0.84455   0.63124
C          C       0.83585   0.15545   0.63124
C          C       0.83585   0.84455   0.36876
C          C       0.16415   0.15545   0.36876
C          C       0.63124   0.16415   0.84455
C          C       0.63124   0.83585   0.15545
C          C       0.36876   0.83585   0.84455
C          C       0.36876   0.16415   0.15545
C          C       0.84455   0.63124   0.16415
C          C       0.15545   0.63124   0.83585
C          C       0.84455   0.36876   0.83585
C          C       0.15545   0.36876   0.16415
C          C       0.83097   0.16283   0.38027
C          C       0.16903   0.83717   0.38027
C          C       0.16903   0.16283   0.61973
C          C       0.83097   0.83717   0.61973
C          C       0.38027   0.83097   0.16283
C          C       0.38027   0.16903   0.83717
C          C       0.61973   0.16903   0.16283
C          C       0.61973   0.83097   0.83717
C          C       0.16283   0.38027   0.83097
C          C       0.83717   0.38027   0.16903
C          C       0.16283   0.61973   0.16903
C          C       0.83717   0.61973   0.83097
C          C       0.16903   0.83717   0.61973
C          C       0.83097   0.16283   0.61973
C          C       0.83097   0.83717   0.38027
C          C       0.16903   0.16283   0.38027
C          C       0.61973   0.16903   0.83717
C          C       0.61973   0.83097   0.16283
C          C       0.38027   0.83097   0.83717
C          C       0.38027   0.16903   0.16283
C          C       0.83717   0.61973   0.16903
C          C       0.16283   0.61973   0.83097
C          C       0.83717   0.38027   0.83097
C          C       0.16283   0.38027   0.16903
C          C       0.27521   0.22596   0.96517
C          C       0.72479   0.77404   0.96517
C          C       0.72479   0.22596   0.03483
C          C       0.27521   0.77404   0.03483
C          C       0.96517   0.27521   0.22596
C          C       0.96517   0.72479   0.77404
C          C       0.03483   0.72479   0.22596
C          C       0.03483   0.27521   0.77404
C          C       0.22596   0.96517   0.27521
C          C       0.77404   0.96517   0.72479
C          C       0.22596   0.03483   0.72479
C          C       0.77404   0.03483   0.27521
C          C       0.72479   0.77404   0.03483
C          C       0.27521   0.22596   0.03483
C          C       0.27521   0.77404   0.96517
C          C       0.72479   0.22596   0.96517
C          C       0.03483   0.72479   0.77404
C          C       0.03483   0.27521   0.22596
C          C       0.96517   0.27521   0.77404
C          C       0.96517   0.72479   0.22596
C          C       0.77404   0.03483   0.72479
C          C       0.22596   0.03483   0.27521
C          C       0.77404   0.96517   0.27521
C          C       0.22596   0.96517   0.72479
C          C       0.27160   0.21242   0.96122
C          C       0.72840   0.78758   0.96122
C          C       0.72840   0.21242   0.03878
C          C       0.27160   0.78758   0.03878
C          C       0.96122   0.27160   0.21242
C          C       0.96122   0.72840   0.78758
C          C       0.03878   0.72840   0.21242
C          C       0.03878   0.27160   0.78758
C          C       0.21242   0.96122   0.27160
C          C       0.78758   0.96122   0.72840
C          C       0.21242   0.03878   0.72840
C          C       0.78758   0.03878   0.27160
C          C       0.72840   0.78758   0.03878
C          C       0.27160   0.21242   0.03878
C          C       0.27160   0.78758   0.96122
C          C       0.72840   0.21242   0.96122
C          C       0.03878   0.72840   0.78758
C          C       0.03878   0.27160   0.21242
C          C       0.96122   0.27160   0.78758
C          C       0.96122   0.72840   0.21242
C          C       0.78758   0.03878   0.72840
C          C       0.21242   0.03878   0.27160
C          C       0.78758   0.96122   0.27160
C          C       0.21242   0.96122   0.72840
C          C       0.27896   0.20569   0.95069
C          C       0.72104   0.79431   0.95069
C          C       0.72104   0.20569   0.04931
C          C       0.27896   0.79431   0.04931
C          C       0.95069   0.27896   0.20569
C          C       0.95069   0.72104   0.79431
C          C       0.04931   0.72104   0.20569
C          C       0.04931   0.27896   0.79431
C          C       0.20569   0.95069   0.27896
C          C       0.79431   0.95069   0.72104
C          C       0.20569   0.04931   0.72104
C          C       0.79431   0.04931   0.27896
C          C       0.72104   0.79431   0.04931
C          C       0.27896   0.20569   0.04931
C          C       0.27896   0.79431   0.95069
C          C       0.72104   0.20569   0.95069
C          C       0.04931   0.72104   0.79431
C          C       0.04931   0.27896   0.20569
C          C       0.95069   0.27896   0.79431
C          C       0.95069   0.72104   0.20569
C          C       0.79431   0.04931   0.72104
C          C       0.20569   0.04931   0.27896
C          C       0.79431   0.95069   0.27896
C          C       0.20569   0.95069   0.72104
C          C       0.29005   0.21229   0.94399
C          C       0.70995   0.78771   0.94399
C          C       0.70995   0.21229   0.05601
C          C       0.29005   0.78771   0.05601
C          C       0.94399   0.29005   0.21229
C          C       0.94399   0.70995   0.78771
C          C       0.05601   0.70995   0.21229
C          C       0.05601   0.29005   0.78771
C          C       0.21229   0.94399   0.29005
C          C       0.78771   0.94399   0.70995
C          C       0.21229   0.05601   0.70995
C          C       0.78771   0.05601   0.29005
C          C       0.70995   0.78771   0.05601
C          C       0.29005   0.21229   0.05601
C          C       0.29005   0.78771   0.94399
C          C       0.70995   0.21229   0.94399
C          C       0.05601   0.70995   0.78771
C          C       0.05601   0.29005   0.21229
C          C       0.94399   0.29005   0.78771
C          C       0.94399   0.70995   0.21229
C          C       0.78771   0.05601   0.70995
C          C       0.21229   0.05601   0.29005
C          C       0.78771   0.94399   0.29005
C          C       0.21229   0.94399   0.70995
C          C       0.29365   0.22592   0.94797
C          C       0.70635   0.77408   0.94797
C          C       0.70635   0.22592   0.05203
C          C       0.29365   0.77408   0.05203
C          C       0.94797   0.29365   0.22592
C          C       0.94797   0.70635   0.77408
C          C       0.05203   0.70635   0.22592
C          C       0.05203   0.29365   0.77408
C          C       0.22592   0.94797   0.29365
C          C       0.77408   0.94797   0.70635
C          C       0.22592   0.05203   0.70635
C          C       0.77408   0.05203   0.29365
C          C       0.70635   0.77408   0.05203
C          C       0.29365   0.22592   0.05203
C          C       0.29365   0.77408   0.94797
C          C       0.70635   0.22592   0.94797
C          C       0.05203   0.70635   0.77408
C          C       0.05203   0.29365   0.22592
C          C       0.94797   0.29365   0.77408
C          C       0.94797   0.70635   0.22592
C          C       0.77408   0.05203   0.70635
C          C       0.22592   0.05203   0.29365
C          C       0.77408   0.94797   0.29365
C          C       0.22592   0.94797   0.70635
C          C       0.28629   0.23265   0.95851
C          C       0.71371   0.76735   0.95851
C          C       0.71371   0.23265   0.04149
C          C       0.28629   0.76735   0.04149
C          C       0.95851   0.28629   0.23265
C          C       0.95851   0.71371   0.76735
C          C       0.04149   0.71371   0.23265
C          C       0.04149   0.28629   0.76735
C          C       0.23265   0.95851   0.28629
C          C       0.76735   0.95851   0.71371
C          C       0.23265   0.04149   0.71371
C          C       0.76735   0.04149   0.28629
C          C       0.71371   0.76735   0.04149
C          C       0.28629   0.23265   0.04149
C          C       0.28629   0.76735   0.95851
C          C       0.71371   0.23265   0.95851
C          C       0.04149   0.71371   0.76735
C          C       0.04149   0.28629   0.23265
C          C       0.95851   0.28629   0.76735
C          C       0.95851   0.71371   0.23265
C          C       0.76735   0.04149   0.71371
C          C       0.23265   0.04149   0.28629
C          C       0.76735   0.95851   0.28629
C          C       0.23265   0.95851   0.71371
N          N       0.29694   0.20498   0.93294
N          N       0.70306   0.79502   0.93294
N          N       0.70306   0.20498   0.06706
N          N       0.29694   0.79502   0.06706
N          N       0.93294   0.29694   0.20498
N          N       0.93294   0.70306   0.79502
N          N       0.06706   0.70306   0.20498
N          N       0.06706   0.29694   0.79502
N          N       0.20498   0.93294   0.29694
N          N       0.79502   0.93294   0.70306
N          N       0.20498   0.06706   0.70306
N          N       0.79502   0.06706   0.29694
N          N       0.70306   0.79502   0.06706
N          N       0.29694   0.20498   0.06706
N          N       0.29694   0.79502   0.93294
N          N       0.70306   0.20498   0.93294
N          N       0.06706   0.70306   0.79502
N          N       0.06706   0.29694   0.20498
N          N       0.93294   0.29694   0.79502
N          N       0.93294   0.70306   0.20498
N          N       0.79502   0.06706   0.70306
N          N       0.20498   0.06706   0.29694
N          N       0.79502   0.93294   0.29694
N          N       0.20498   0.93294   0.70306
C          C       0.30848   0.20850   0.92689
C          C       0.69152   0.79150   0.92689
C          C       0.69152   0.20850   0.07311
C          C       0.30848   0.79150   0.07311
C          C       0.92689   0.30848   0.20850
C          C       0.92689   0.69152   0.79150
C          C       0.07311   0.69152   0.20850
C          C       0.07311   0.30848   0.79150
C          C       0.20850   0.92689   0.30848
C          C       0.79150   0.92689   0.69152
C          C       0.20850   0.07311   0.69152
C          C       0.79150   0.07311   0.30848
C          C       0.69152   0.79150   0.07311
C          C       0.30848   0.20850   0.07311
C          C       0.30848   0.79150   0.92689
C          C       0.69152   0.20850   0.92689
C          C       0.07311   0.69152   0.79150
C          C       0.07311   0.30848   0.20850
C          C       0.92689   0.30848   0.79150
C          C       0.92689   0.69152   0.20850
C          C       0.79150   0.07311   0.69152
C          C       0.20850   0.07311   0.30848
C          C       0.79150   0.92689   0.30848
C          C       0.20850   0.92689   0.69152
C          C       0.31410   0.20018   0.91530
C          C       0.68590   0.79982   0.91530
C          C       0.68590   0.20018   0.08470
C          C       0.31410   0.79982   0.08470
C          C       0.91530   0.31410   0.20018
C          C       0.91530   0.68590   0.79982
C          C       0.08470   0.68590   0.20018
C          C       0.08470   0.31410   0.79982
C          C       0.20018   0.91530   0.31410
C          C       0.79982   0.91530   0.68590
C          C       0.20018   0.08470   0.68590
C          C       0.79982   0.08470   0.31410
C          C       0.68590   0.79982   0.08470
C          C       0.31410   0.20018   0.08470
C          C       0.31410   0.79982   0.91530
C          C       0.68590   0.20018   0.91530
C          C       0.08470   0.68590   0.79982
C          C       0.08470   0.31410   0.20018
C          C       0.91530   0.31410   0.79982
C          C       0.91530   0.68590   0.20018
C          C       0.79982   0.08470   0.68590
C          C       0.20018   0.08470   0.31410
C          C       0.79982   0.91530   0.31410
C          C       0.20018   0.91530   0.68590
C          C       0.32631   0.20451   0.90864
C          C       0.67369   0.79549   0.90864
C          C       0.67369   0.20451   0.09136
C          C       0.32631   0.79549   0.09136
C          C       0.90864   0.32631   0.20451
C          C       0.90864   0.67369   0.79549
C          C       0.09136   0.67369   0.20451
C          C       0.09136   0.32631   0.79549
C          C       0.20451   0.90864   0.32631
C          C       0.79549   0.90864   0.67369
C          C       0.20451   0.09136   0.67369
C          C       0.79549   0.09136   0.32631
C          C       0.67369   0.79549   0.09136
C          C       0.32631   0.20451   0.09136
C          C       0.32631   0.79549   0.90864
C          C       0.67369   0.20451   0.90864
C          C       0.09136   0.67369   0.79549
C          C       0.09136   0.32631   0.20451
C          C       0.90864   0.32631   0.79549
C          C       0.90864   0.67369   0.20451
C          C       0.79549   0.09136   0.67369
C          C       0.20451   0.09136   0.32631
C          C       0.79549   0.90864   0.32631
C          C       0.20451   0.90864   0.67369
C          C       0.33164   0.19699   0.89743
C          C       0.66836   0.80301   0.89743
C          C       0.66836   0.19699   0.10257
C          C       0.33164   0.80301   0.10257
C          C       0.89743   0.33164   0.19699
C          C       0.89743   0.66836   0.80301
C          C       0.10257   0.66836   0.19699
C          C       0.10257   0.33164   0.80301
C          C       0.19699   0.89743   0.33164
C          C       0.80301   0.89743   0.66836
C          C       0.19699   0.10257   0.66836
C          C       0.80301   0.10257   0.33164
C          C       0.66836   0.80301   0.10257
C          C       0.33164   0.19699   0.10257
C          C       0.33164   0.80301   0.89743
C          C       0.66836   0.19699   0.89743
C          C       0.10257   0.66836   0.80301
C          C       0.10257   0.33164   0.19699
C          C       0.89743   0.33164   0.80301
C          C       0.89743   0.66836   0.19699
C          C       0.80301   0.10257   0.66836
C          C       0.19699   0.10257   0.33164
C          C       0.80301   0.89743   0.33164
C          C       0.19699   0.89743   0.66836
C          C       0.32487   0.18497   0.89267
C          C       0.67513   0.81503   0.89267
C          C       0.67513   0.18497   0.10733
C          C       0.32487   0.81503   0.10733
C          C       0.89267   0.32487   0.18497
C          C       0.89267   0.67513   0.81503
C          C       0.10733   0.67513   0.18497
C          C       0.10733   0.32487   0.81503
C          C       0.18497   0.89267   0.32487
C          C       0.81503   0.89267   0.67513
C          C       0.18497   0.10733   0.67513
C          C       0.81503   0.10733   0.32487
C          C       0.67513   0.81503   0.10733
C          C       0.32487   0.18497   0.10733
C          C       0.32487   0.81503   0.89267
C          C       0.67513   0.18497   0.89267
C          C       0.10733   0.67513   0.81503
C          C       0.10733   0.32487   0.18497
C          C       0.89267   0.32487   0.81503
C          C       0.89267   0.67513   0.18497
C          C       0.81503   0.10733   0.67513
C          C       0.18497   0.10733   0.32487
C          C       0.81503   0.89267   0.32487
C          C       0.18497   0.89267   0.67513
C          C       0.31272   0.18057   0.89945
C          C       0.68728   0.81943   0.89945
C          C       0.68728   0.18057   0.10055
C          C       0.31272   0.81943   0.10055
C          C       0.89945   0.31272   0.18057
C          C       0.89945   0.68728   0.81943
C          C       0.10055   0.68728   0.18057
C          C       0.10055   0.31272   0.81943
C          C       0.18057   0.89945   0.31272
C          C       0.81943   0.89945   0.68728
C          C       0.18057   0.10055   0.68728
C          C       0.81943   0.10055   0.31272
C          C       0.68728   0.81943   0.10055
C          C       0.31272   0.18057   0.10055
C          C       0.31272   0.81943   0.89945
C          C       0.68728   0.18057   0.89945
C          C       0.10055   0.68728   0.81943
C          C       0.10055   0.31272   0.18057
C          C       0.89945   0.31272   0.81943
C          C       0.89945   0.68728   0.18057
C          C       0.81943   0.10055   0.68728
C          C       0.18057   0.10055   0.31272
C          C       0.81943   0.89945   0.31272
C          C       0.18057   0.89945   0.68728
C          C       0.30737   0.18810   0.91064
C          C       0.69263   0.81190   0.91064
C          C       0.69263   0.18810   0.08936
C          C       0.30737   0.81190   0.08936
C          C       0.91064   0.30737   0.18810
C          C       0.91064   0.69263   0.81190
C          C       0.08936   0.69263   0.18810
C          C       0.08936   0.30737   0.81190
C          C       0.18810   0.91064   0.30737
C          C       0.81190   0.91064   0.69263
C          C       0.18810   0.08936   0.69263
C          C       0.81190   0.08936   0.30737
C          C       0.69263   0.81190   0.08936
C          C       0.30737   0.18810   0.08936
C          C       0.30737   0.81190   0.91064
C          C       0.69263   0.18810   0.91064
C          C       0.08936   0.69263   0.81190
C          C       0.08936   0.30737   0.18810
C          C       0.91064   0.30737   0.81190
C          C       0.91064   0.69263   0.18810
C          C       0.81190   0.08936   0.69263
C          C       0.18810   0.08936   0.30737
C          C       0.81190   0.91064   0.30737
C          C       0.18810   0.91064   0.69263
C          C       0.33032   0.17718   0.88054
C          C       0.66968   0.82282   0.88054
C          C       0.66968   0.17718   0.11946
C          C       0.33032   0.82282   0.11946
C          C       0.88054   0.33032   0.17718
C          C       0.88054   0.66968   0.82282
C          C       0.11946   0.66968   0.17718
C          C       0.11946   0.33032   0.82282
C          C       0.17718   0.88054   0.33032
C          C       0.82282   0.88054   0.66968
C          C       0.17718   0.11946   0.66968
C          C       0.82282   0.11946   0.33032
C          C       0.66968   0.82282   0.11946
C          C       0.33032   0.17718   0.11946
C          C       0.33032   0.82282   0.88054
C          C       0.66968   0.17718   0.88054
C          C       0.11946   0.66968   0.82282
C          C       0.11946   0.33032   0.17718
C          C       0.88054   0.33032   0.82282
C          C       0.88054   0.66968   0.17718
C          C       0.82282   0.11946   0.66968
C          C       0.17718   0.11946   0.33032
C          C       0.82282   0.88054   0.33032
C          C       0.17718   0.88054   0.66968
C          C       0.33530   0.18430   0.86882
C          C       0.66470   0.81570   0.86882
C          C       0.66470   0.18430   0.13118
C          C       0.33530   0.81570   0.13118
C          C       0.86882   0.33530   0.18430
C          C       0.86882   0.66470   0.81570
C          C       0.13118   0.66470   0.18430
C          C       0.13118   0.33530   0.81570
C          C       0.18430   0.86882   0.33530
C          C       0.81570   0.86882   0.66470
C          C       0.18430   0.13118   0.66470
C          C       0.81570   0.13118   0.33530
C          C       0.66470   0.81570   0.13118
C          C       0.33530   0.18430   0.13118
C          C       0.33530   0.81570   0.86882
C          C       0.66470   0.18430   0.86882
C          C       0.13118   0.66470   0.81570
C          C       0.13118   0.33530   0.18430
C          C       0.86882   0.33530   0.81570
C          C       0.86882   0.66470   0.18430
C          C       0.81570   0.13118   0.66470
C          C       0.18430   0.13118   0.33530
C          C       0.81570   0.86882   0.33530
C          C       0.18430   0.86882   0.66470
C          C       0.34014   0.17698   0.85726
C          C       0.65986   0.82302   0.85726
C          C       0.65986   0.17698   0.14274
C          C       0.34014   0.82302   0.14274
C          C       0.85726   0.34014   0.17698
C          C       0.85726   0.65986   0.82302
C          C       0.14274   0.65986   0.17698
C          C       0.14274   0.34014   0.82302
C          C       0.17698   0.85726   0.34014
C          C       0.82302   0.85726   0.65986
C          C       0.17698   0.14274   0.65986
C          C       0.82302   0.14274   0.34014
C          C       0.65986   0.82302   0.14274
C          C       0.34014   0.17698   0.14274
C          C       0.34014   0.82302   0.85726
C          C       0.65986   0.17698   0.85726
C          C       0.14274   0.65986   0.82302
C          C       0.14274   0.34014   0.17698
C          C       0.85726   0.34014   0.82302
C          C       0.85726   0.65986   0.17698
C          C       0.82302   0.14274   0.65986
C          C       0.17698   0.14274   0.34014
C          C       0.82302   0.85726   0.34014
C          C       0.17698   0.85726   0.65986
C          C       0.34014   0.16239   0.85720
C          C       0.65986   0.83761   0.85720
C          C       0.65986   0.16239   0.14280
C          C       0.34014   0.83761   0.14280
C          C       0.85720   0.34014   0.16239
C          C       0.85720   0.65986   0.83761
C          C       0.14280   0.65986   0.16239
C          C       0.14280   0.34014   0.83761
C          C       0.16239   0.85720   0.34014
C          C       0.83761   0.85720   0.65986
C          C       0.16239   0.14280   0.65986
C          C       0.83761   0.14280   0.34014
C          C       0.65986   0.83761   0.14280
C          C       0.34014   0.16239   0.14280
C          C       0.34014   0.83761   0.85720
C          C       0.65986   0.16239   0.85720
C          C       0.14280   0.65986   0.83761
C          C       0.14280   0.34014   0.16239
C          C       0.85720   0.34014   0.83761
C          C       0.85720   0.65986   0.16239
C          C       0.83761   0.14280   0.65986
C          C       0.16239   0.14280   0.34014
C          C       0.83761   0.85720   0.34014
C          C       0.16239   0.85720   0.65986
C          C       0.33528   0.15527   0.86896
C          C       0.66472   0.84473   0.86896
C          C       0.66472   0.15527   0.13104
C          C       0.33528   0.84473   0.13104
C          C       0.86896   0.33528   0.15527
C          C       0.86896   0.66472   0.84473
C          C       0.13104   0.66472   0.15527
C          C       0.13104   0.33528   0.84473
C          C       0.15527   0.86896   0.33528
C          C       0.84473   0.86896   0.66472
C          C       0.15527   0.13104   0.66472
C          C       0.84473   0.13104   0.33528
C          C       0.66472   0.84473   0.13104
C          C       0.33528   0.15527   0.13104
C          C       0.33528   0.84473   0.86896
C          C       0.66472   0.15527   0.86896
C          C       0.13104   0.66472   0.84473
C          C       0.13104   0.33528   0.15527
C          C       0.86896   0.33528   0.84473
C          C       0.86896   0.66472   0.15527
C          C       0.84473   0.13104   0.66472
C          C       0.15527   0.13104   0.33528
C          C       0.84473   0.86896   0.33528
C          C       0.15527   0.86896   0.66472
C          C       0.33040   0.16258   0.88051
C          C       0.66960   0.83742   0.88051
C          C       0.66960   0.16258   0.11949
C          C       0.33040   0.83742   0.11949
C          C       0.88051   0.33040   0.16258
C          C       0.88051   0.66960   0.83742
C          C       0.11949   0.66960   0.16258
C          C       0.11949   0.33040   0.83742
C          C       0.16258   0.88051   0.33040
C          C       0.83742   0.88051   0.66960
C          C       0.16258   0.11949   0.66960
C          C       0.83742   0.11949   0.33040
C          C       0.66960   0.83742   0.11949
C          C       0.33040   0.16258   0.11949
C          C       0.33040   0.83742   0.88051
C          C       0.66960   0.16258   0.88051
C          C       0.11949   0.66960   0.83742
C          C       0.11949   0.33040   0.16258
C          C       0.88051   0.33040   0.83742
C          C       0.88051   0.66960   0.16258
C          C       0.83742   0.11949   0.66960
C          C       0.16258   0.11949   0.33040
C          C       0.83742   0.88051   0.33040
C          C       0.16258   0.88051   0.66960
C          C       0.77574   0.72685   0.96515
C          C       0.22426   0.27315   0.96515
C          C       0.22426   0.72685   0.03485
C          C       0.77574   0.27315   0.03485
C          C       0.96515   0.77574   0.72685
C          C       0.96515   0.22426   0.27315
C          C       0.03485   0.22426   0.72685
C          C       0.03485   0.77574   0.27315
C          C       0.72685   0.96515   0.77574
C          C       0.27315   0.96515   0.22426
C          C       0.72685   0.03485   0.22426
C          C       0.27315   0.03485   0.77574
C          C       0.22426   0.27315   0.03485
C          C       0.77574   0.72685   0.03485
C          C       0.77574   0.27315   0.96515
C          C       0.22426   0.72685   0.96515
C          C       0.03485   0.22426   0.27315
C          C       0.03485   0.77574   0.72685
C          C       0.96515   0.77574   0.27315
C          C       0.96515   0.22426   0.72685
C          C       0.27315   0.03485   0.22426
C          C       0.72685   0.03485   0.77574
C          C       0.27315   0.96515   0.77574
C          C       0.72685   0.96515   0.22426
C          C       0.76992   0.71529   0.95851
C          C       0.23008   0.28471   0.95851
C          C       0.23008   0.71529   0.04149
C          C       0.76992   0.28471   0.04149
C          C       0.95851   0.76992   0.71529
C          C       0.95851   0.23008   0.28471
C          C       0.04149   0.23008   0.71529
C          C       0.04149   0.76992   0.28471
C          C       0.71529   0.95851   0.76992
C          C       0.28471   0.95851   0.23008
C          C       0.71529   0.04149   0.23008
C          C       0.28471   0.04149   0.76992
C          C       0.23008   0.28471   0.04149
C          C       0.76992   0.71529   0.04149
C          C       0.76992   0.28471   0.95851
C          C       0.23008   0.71529   0.95851
C          C       0.04149   0.23008   0.28471
C          C       0.04149   0.76992   0.71529
C          C       0.95851   0.76992   0.28471
C          C       0.95851   0.23008   0.71529
C          C       0.28471   0.04149   0.23008
C          C       0.71529   0.04149   0.76992
C          C       0.28471   0.95851   0.76992
C          C       0.71529   0.95851   0.23008
C          C       0.77719   0.70851   0.94794
C          C       0.22281   0.29149   0.94794
C          C       0.22281   0.70851   0.05206
C          C       0.77719   0.29149   0.05206
C          C       0.94794   0.77719   0.70851
C          C       0.94794   0.22281   0.29149
C          C       0.05206   0.22281   0.70851
C          C       0.05206   0.77719   0.29149
C          C       0.70851   0.94794   0.77719
C          C       0.29149   0.94794   0.22281
C          C       0.70851   0.05206   0.22281
C          C       0.29149   0.05206   0.77719
C          C       0.22281   0.29149   0.05206
C          C       0.77719   0.70851   0.05206
C          C       0.77719   0.29149   0.94794
C          C       0.22281   0.70851   0.94794
C          C       0.05206   0.22281   0.29149
C          C       0.05206   0.77719   0.70851
C          C       0.94794   0.77719   0.29149
C          C       0.94794   0.22281   0.70851
C          C       0.29149   0.05206   0.22281
C          C       0.70851   0.05206   0.77719
C          C       0.29149   0.94794   0.77719
C          C       0.70851   0.94794   0.22281
C          C       0.79032   0.71319   0.94378
C          C       0.20968   0.28681   0.94378
C          C       0.20968   0.71319   0.05622
C          C       0.79032   0.28681   0.05622
C          C       0.94378   0.79032   0.71319
C          C       0.94378   0.20968   0.28681
C          C       0.05622   0.20968   0.71319
C          C       0.05622   0.79032   0.28681
C          C       0.71319   0.94378   0.79032
C          C       0.28681   0.94378   0.20968
C          C       0.71319   0.05622   0.20968
C          C       0.28681   0.05622   0.79032
C          C       0.20968   0.28681   0.05622
C          C       0.79032   0.71319   0.05622
C          C       0.79032   0.28681   0.94378
C          C       0.20968   0.71319   0.94378
C          C       0.05622   0.20968   0.28681
C          C       0.05622   0.79032   0.71319
C          C       0.94378   0.79032   0.28681
C          C       0.94378   0.20968   0.71319
C          C       0.28681   0.05622   0.20968
C          C       0.71319   0.05622   0.79032
C          C       0.28681   0.94378   0.79032
C          C       0.71319   0.94378   0.20968
C          C       0.79626   0.72469   0.95064
C          C       0.20374   0.27531   0.95064
C          C       0.20374   0.72469   0.04936
C          C       0.79626   0.27531   0.04936
C          C       0.95064   0.79626   0.72469
C          C       0.95064   0.20374   0.27531
C          C       0.04936   0.20374   0.72469
C          C       0.04936   0.79626   0.27531
C          C       0.72469   0.95064   0.79626
C          C       0.27531   0.95064   0.20374
C          C       0.72469   0.04936   0.20374
C          C       0.27531   0.04936   0.79626
C          C       0.20374   0.27531   0.04936
C          C       0.79626   0.72469   0.04936
C          C       0.79626   0.27531   0.95064
C          C       0.20374   0.72469   0.95064
C          C       0.04936   0.20374   0.27531
C          C       0.04936   0.79626   0.72469
C          C       0.95064   0.79626   0.27531
C          C       0.95064   0.20374   0.72469
C          C       0.27531   0.04936   0.20374
C          C       0.72469   0.04936   0.79626
C          C       0.27531   0.95064   0.79626
C          C       0.72469   0.95064   0.20374
C          C       0.78898   0.73145   0.96122
C          C       0.21102   0.26855   0.96122
C          C       0.21102   0.73145   0.03878
C          C       0.78898   0.26855   0.03878
C          C       0.96122   0.78898   0.73145
C          C       0.96122   0.21102   0.26855
C          C       0.03878   0.21102   0.73145
C          C       0.03878   0.78898   0.26855
C          C       0.73145   0.96122   0.78898
C          C       0.26855   0.96122   0.21102
C          C       0.73145   0.03878   0.21102
C          C       0.26855   0.03878   0.78898
C          C       0.21102   0.26855   0.03878
C          C       0.78898   0.73145   0.03878
C          C       0.78898   0.26855   0.96122
C          C       0.21102   0.73145   0.96122
C          C       0.03878   0.21102   0.26855
C          C       0.03878   0.78898   0.73145
C          C       0.96122   0.78898   0.26855
C          C       0.96122   0.21102   0.73145
C          C       0.26855   0.03878   0.21102
C          C       0.73145   0.03878   0.78898
C          C       0.26855   0.96122   0.78898
C          C       0.73145   0.96122   0.21102
N          N       0.79713   0.70595   0.93263
N          N       0.20287   0.29405   0.93263
N          N       0.20287   0.70595   0.06737
N          N       0.79713   0.29405   0.06737
N          N       0.93263   0.79713   0.70595
N          N       0.93263   0.20287   0.29405
N          N       0.06737   0.20287   0.70595
N          N       0.06737   0.79713   0.29405
N          N       0.70595   0.93263   0.79713
N          N       0.29405   0.93263   0.20287
N          N       0.70595   0.06737   0.20287
N          N       0.29405   0.06737   0.79713
N          N       0.20287   0.29405   0.06737
N          N       0.79713   0.70595   0.06737
N          N       0.79713   0.29405   0.93263
N          N       0.20287   0.70595   0.93263
N          N       0.06737   0.20287   0.29405
N          N       0.06737   0.79713   0.70595
N          N       0.93263   0.79713   0.29405
N          N       0.93263   0.20287   0.70595
N          N       0.29405   0.06737   0.20287
N          N       0.70595   0.06737   0.79713
N          N       0.29405   0.93263   0.79713
N          N       0.70595   0.93263   0.20287
C          C       0.80838   0.70972   0.92619
C          C       0.19162   0.29028   0.92619
C          C       0.19162   0.70972   0.07381
C          C       0.80838   0.29028   0.07381
C          C       0.92619   0.80838   0.70972
C          C       0.92619   0.19162   0.29028
C          C       0.07381   0.19162   0.70972
C          C       0.07381   0.80838   0.29028
C          C       0.70972   0.92619   0.80838
C          C       0.29028   0.92619   0.19162
C          C       0.70972   0.07381   0.19162
C          C       0.29028   0.07381   0.80838
C          C       0.19162   0.29028   0.07381
C          C       0.80838   0.70972   0.07381
C          C       0.80838   0.29028   0.92619
C          C       0.19162   0.70972   0.92619
C          C       0.07381   0.19162   0.29028
C          C       0.07381   0.80838   0.70972
C          C       0.92619   0.80838   0.29028
C          C       0.92619   0.19162   0.70972
C          C       0.29028   0.07381   0.19162
C          C       0.70972   0.07381   0.80838
C          C       0.29028   0.92619   0.80838
C          C       0.70972   0.92619   0.19162
C          C       0.81401   0.70129   0.91469
C          C       0.18599   0.29871   0.91469
C          C       0.18599   0.70129   0.08531
C          C       0.81401   0.29871   0.08531
C          C       0.91469   0.81401   0.70129
C          C       0.91469   0.18599   0.29871
C          C       0.08531   0.18599   0.70129
C          C       0.08531   0.81401   0.29871
C          C       0.70129   0.91469   0.81401
C          C       0.29871   0.91469   0.18599
C          C       0.70129   0.08531   0.18599
C          C       0.29871   0.08531   0.81401
C          C       0.18599   0.29871   0.08531
C          C       0.81401   0.70129   0.08531
C          C       0.81401   0.29871   0.91469
C          C       0.18599   0.70129   0.91469
C          C       0.08531   0.18599   0.29871
C          C       0.08531   0.81401   0.70129
C          C       0.91469   0.81401   0.29871
C          C       0.91469   0.18599   0.70129
C          C       0.29871   0.08531   0.18599
C          C       0.70129   0.08531   0.81401
C          C       0.29871   0.91469   0.81401
C          C       0.70129   0.91469   0.18599
C          C       0.82595   0.70581   0.90768
C          C       0.17405   0.29419   0.90768
C          C       0.17405   0.70581   0.09232
C          C       0.82595   0.29419   0.09232
C          C       0.90768   0.82595   0.70581
C          C       0.90768   0.17405   0.29419
C          C       0.09232   0.17405   0.70581
C          C       0.09232   0.82595   0.29419
C          C       0.70581   0.90768   0.82595
C          C       0.29419   0.90768   0.17405
C          C       0.70581   0.09232   0.17405
C          C       0.29419   0.09232   0.82595
C          C       0.17405   0.29419   0.09232
C          C       0.82595   0.70581   0.09232
C          C       0.82595   0.29419   0.90768
C          C       0.17405   0.70581   0.90768
C          C       0.09232   0.17405   0.29419
C          C       0.09232   0.82595   0.70581
C          C       0.90768   0.82595   0.29419
C          C       0.90768   0.17405   0.70581
C          C       0.29419   0.09232   0.17405
C          C       0.70581   0.09232   0.82595
C          C       0.29419   0.90768   0.82595
C          C       0.70581   0.90768   0.17405
C          C       0.83130   0.69818   0.89656
C          C       0.16870   0.30182   0.89656
C          C       0.16870   0.69818   0.10344
C          C       0.83130   0.30182   0.10344
C          C       0.89656   0.83130   0.69818
C          C       0.89656   0.16870   0.30182
C          C       0.10344   0.16870   0.69818
C          C       0.10344   0.83130   0.30182
C          C       0.69818   0.89656   0.83130
C          C       0.30182   0.89656   0.16870
C          C       0.69818   0.10344   0.16870
C          C       0.30182   0.10344   0.83130
C          C       0.16870   0.30182   0.10344
C          C       0.83130   0.69818   0.10344
C          C       0.83130   0.30182   0.89656
C          C       0.16870   0.69818   0.89656
C          C       0.10344   0.16870   0.30182
C          C       0.10344   0.83130   0.69818
C          C       0.89656   0.83130   0.30182
C          C       0.89656   0.16870   0.69818
C          C       0.30182   0.10344   0.16870
C          C       0.69818   0.10344   0.83130
C          C       0.30182   0.89656   0.83130
C          C       0.69818   0.89656   0.16870
C          C       0.82481   0.68585   0.89222
C          C       0.17519   0.31415   0.89222
C          C       0.17519   0.68585   0.10778
C          C       0.82481   0.31415   0.10778
C          C       0.89222   0.82481   0.68585
C          C       0.89222   0.17519   0.31415
C          C       0.10778   0.17519   0.68585
C          C       0.10778   0.82481   0.31415
C          C       0.68585   0.89222   0.82481
C          C       0.31415   0.89222   0.17519
C          C       0.68585   0.10778   0.17519
C          C       0.31415   0.10778   0.82481
C          C       0.17519   0.31415   0.10778
C          C       0.82481   0.68585   0.10778
C          C       0.82481   0.31415   0.89222
C          C       0.17519   0.68585   0.89222
C          C       0.10778   0.17519   0.31415
C          C       0.10778   0.82481   0.68585
C          C       0.89222   0.82481   0.31415
C          C       0.89222   0.17519   0.68585
C          C       0.31415   0.10778   0.17519
C          C       0.68585   0.10778   0.82481
C          C       0.31415   0.89222   0.82481
C          C       0.68585   0.89222   0.17519
C          C       0.81292   0.68126   0.89933
C          C       0.18708   0.31874   0.89933
C          C       0.18708   0.68126   0.10067
C          C       0.81292   0.31874   0.10067
C          C       0.89933   0.81292   0.68126
C          C       0.89933   0.18708   0.31874
C          C       0.10067   0.18708   0.68126
C          C       0.10067   0.81292   0.31874
C          C       0.68126   0.89933   0.81292
C          C       0.31874   0.89933   0.18708
C          C       0.68126   0.10067   0.18708
C          C       0.31874   0.10067   0.81292
C          C       0.18708   0.31874   0.10067
C          C       0.81292   0.68126   0.10067
C          C       0.81292   0.31874   0.89933
C          C       0.18708   0.68126   0.89933
C          C       0.10067   0.18708   0.31874
C          C       0.10067   0.81292   0.68126
C          C       0.89933   0.81292   0.31874
C          C       0.89933   0.18708   0.68126
C          C       0.31874   0.10067   0.18708
C          C       0.68126   0.10067   0.81292
C          C       0.31874   0.89933   0.81292
C          C       0.68126   0.89933   0.18708
C          C       0.80757   0.68890   0.91045
C          C       0.19243   0.31110   0.91045
C          C       0.19243   0.68890   0.08955
C          C       0.80757   0.31110   0.08955
C          C       0.91045   0.80757   0.68890
C          C       0.91045   0.19243   0.31110
C          C       0.08955   0.19243   0.68890
C          C       0.08955   0.80757   0.31110
C          C       0.68890   0.91045   0.80757
C          C       0.31110   0.91045   0.19243
C          C       0.68890   0.08955   0.19243
C          C       0.31110   0.08955   0.80757
C          C       0.19243   0.31110   0.08955
C          C       0.80757   0.68890   0.08955
C          C       0.80757   0.31110   0.91045
C          C       0.19243   0.68890   0.91045
C          C       0.08955   0.19243   0.31110
C          C       0.08955   0.80757   0.68890
C          C       0.91045   0.80757   0.31110
C          C       0.91045   0.19243   0.68890
C          C       0.31110   0.08955   0.19243
C          C       0.68890   0.08955   0.80757
C          C       0.31110   0.91045   0.80757
C          C       0.68890   0.91045   0.19243
C          C       0.83029   0.67792   0.88019
C          C       0.16971   0.32208   0.88019
C          C       0.16971   0.67792   0.11981
C          C       0.83029   0.32208   0.11981
C          C       0.88019   0.83029   0.67792
C          C       0.88019   0.16971   0.32208
C          C       0.11981   0.16971   0.67792
C          C       0.11981   0.83029   0.32208
C          C       0.67792   0.88019   0.83029
C          C       0.32208   0.88019   0.16971
C          C       0.67792   0.11981   0.16971
C          C       0.32208   0.11981   0.83029
C          C       0.16971   0.32208   0.11981
C          C       0.83029   0.67792   0.11981
C          C       0.83029   0.32208   0.88019
C          C       0.16971   0.67792   0.88019
C          C       0.11981   0.16971   0.32208
C          C       0.11981   0.83029   0.67792
C          C       0.88019   0.83029   0.32208
C          C       0.88019   0.16971   0.67792
C          C       0.32208   0.11981   0.16971
C          C       0.67792   0.11981   0.83029
C          C       0.32208   0.88019   0.83029
C          C       0.67792   0.88019   0.16971
C          C       0.83507   0.68488   0.86828
C          C       0.16493   0.31512   0.86828
C          C       0.16493   0.68488   0.13172
C          C       0.83507   0.31512   0.13172
C          C       0.86828   0.83507   0.68488
C          C       0.86828   0.16493   0.31512
C          C       0.13172   0.16493   0.68488
C          C       0.13172   0.83507   0.31512
C          C       0.68488   0.86828   0.83507
C          C       0.31512   0.86828   0.16493
C          C       0.68488   0.13172   0.16493
C          C       0.31512   0.13172   0.83507
C          C       0.16493   0.31512   0.13172
C          C       0.83507   0.68488   0.13172
C          C       0.83507   0.31512   0.86828
C          C       0.16493   0.68488   0.86828
C          C       0.13172   0.16493   0.31512
C          C       0.13172   0.83507   0.68488
C          C       0.86828   0.83507   0.31512
C          C       0.86828   0.16493   0.68488
C          C       0.31512   0.13172   0.16493
C          C       0.68488   0.13172   0.83507
C          C       0.31512   0.86828   0.83507
C          C       0.68488   0.86828   0.16493
C          C       0.84000   0.67743   0.85686
C          C       0.16000   0.32257   0.85686
C          C       0.16000   0.67743   0.14314
C          C       0.84000   0.32257   0.14314
C          C       0.85686   0.84000   0.67743
C          C       0.85686   0.16000   0.32257
C          C       0.14314   0.16000   0.67743
C          C       0.14314   0.84000   0.32257
C          C       0.67743   0.85686   0.84000
C          C       0.32257   0.85686   0.16000
C          C       0.67743   0.14314   0.16000
C          C       0.32257   0.14314   0.84000
C          C       0.16000   0.32257   0.14314
C          C       0.84000   0.67743   0.14314
C          C       0.84000   0.32257   0.85686
C          C       0.16000   0.67743   0.85686
C          C       0.14314   0.16000   0.32257
C          C       0.14314   0.84000   0.67743
C          C       0.85686   0.84000   0.32257
C          C       0.85686   0.16000   0.67743
C          C       0.32257   0.14314   0.16000
C          C       0.67743   0.14314   0.84000
C          C       0.32257   0.85686   0.84000
C          C       0.67743   0.85686   0.16000
C          C       0.84029   0.66286   0.85709
C          C       0.15971   0.33714   0.85709
C          C       0.15971   0.66286   0.14291
C          C       0.84029   0.33714   0.14291
C          C       0.85709   0.84029   0.66286
C          C       0.85709   0.15971   0.33714
C          C       0.14291   0.15971   0.66286
C          C       0.14291   0.84029   0.33714
C          C       0.66286   0.85709   0.84029
C          C       0.33714   0.85709   0.15971
C          C       0.66286   0.14291   0.15971
C          C       0.33714   0.14291   0.84029
C          C       0.15971   0.33714   0.14291
C          C       0.84029   0.66286   0.14291
C          C       0.84029   0.33714   0.85709
C          C       0.15971   0.66286   0.85709
C          C       0.14291   0.15971   0.33714
C          C       0.14291   0.84029   0.66286
C          C       0.85709   0.84029   0.33714
C          C       0.85709   0.15971   0.66286
C          C       0.33714   0.14291   0.15971
C          C       0.66286   0.14291   0.84029
C          C       0.33714   0.85709   0.84029
C          C       0.66286   0.85709   0.15971
C          C       0.83559   0.65588   0.86900
C          C       0.16441   0.34412   0.86900
C          C       0.16441   0.65588   0.13100
C          C       0.83559   0.34412   0.13100
C          C       0.86900   0.83559   0.65588
C          C       0.86900   0.16441   0.34412
C          C       0.13100   0.16441   0.65588
C          C       0.13100   0.83559   0.34412
C          C       0.65588   0.86900   0.83559
C          C       0.34412   0.86900   0.16441
C          C       0.65588   0.13100   0.16441
C          C       0.34412   0.13100   0.83559
C          C       0.16441   0.34412   0.13100
C          C       0.83559   0.65588   0.13100
C          C       0.83559   0.34412   0.86900
C          C       0.16441   0.65588   0.86900
C          C       0.13100   0.16441   0.34412
C          C       0.13100   0.83559   0.65588
C          C       0.86900   0.83559   0.34412
C          C       0.86900   0.16441   0.65588
C          C       0.34412   0.13100   0.16441
C          C       0.65588   0.13100   0.83559
C          C       0.34412   0.86900   0.83559
C          C       0.65588   0.86900   0.16441
C          C       0.83064   0.66332   0.88043
C          C       0.16936   0.33668   0.88043
C          C       0.16936   0.66332   0.11957
C          C       0.83064   0.33668   0.11957
C          C       0.88043   0.83064   0.66332
C          C       0.88043   0.16936   0.33668
C          C       0.11957   0.16936   0.66332
C          C       0.11957   0.83064   0.33668
C          C       0.66332   0.88043   0.83064
C          C       0.33668   0.88043   0.16936
C          C       0.66332   0.11957   0.16936
C          C       0.33668   0.11957   0.83064
C          C       0.16936   0.33668   0.11957
C          C       0.83064   0.66332   0.11957
C          C       0.83064   0.33668   0.88043
C          C       0.16936   0.66332   0.88043
C          C       0.11957   0.16936   0.33668
C          C       0.11957   0.83064   0.66332
C          C       0.88043   0.83064   0.33668
C          C       0.88043   0.16936   0.66332
C          C       0.33668   0.11957   0.16936
C          C       0.66332   0.11957   0.83064
C          C       0.33668   0.88043   0.83064
C          C       0.66332   0.88043   0.16936
C          C       0.26170   0.45986   0.75148
C          C       0.73830   0.54014   0.75148
C          C       0.73830   0.45986   0.24852
C          C       0.26170   0.54014   0.24852
C          C       0.75148   0.26170   0.45986
C          C       0.75148   0.73830   0.54014
C          C       0.24852   0.73830   0.45986
C          C       0.24852   0.26170   0.54014
C          C       0.45986   0.75148   0.26170
C          C       0.54014   0.75148   0.73830
C          C       0.45986   0.24852   0.73830
C          C       0.54014   0.24852   0.26170
C          C       0.73830   0.54014   0.24852
C          C       0.26170   0.45986   0.24852
C          C       0.26170   0.54014   0.75148
C          C       0.73830   0.45986   0.75148
C          C       0.24852   0.73830   0.54014
C          C       0.24852   0.26170   0.45986
C          C       0.75148   0.26170   0.54014
C          C       0.75148   0.73830   0.45986
C          C       0.54014   0.24852   0.73830
C          C       0.45986   0.24852   0.26170
C          C       0.54014   0.75148   0.26170
C          C       0.45986   0.75148   0.73830
C          C       0.26149   0.47316   0.74597
C          C       0.73851   0.52684   0.74597
C          C       0.73851   0.47316   0.25403
C          C       0.26149   0.52684   0.25403
C          C       0.74597   0.26149   0.47316
C          C       0.74597   0.73851   0.52684
C          C       0.25403   0.73851   0.47316
C          C       0.25403   0.26149   0.52684
C          C       0.47316   0.74597   0.26149
C          C       0.52684   0.74597   0.73851
C          C       0.47316   0.25403   0.73851
C          C       0.52684   0.25403   0.26149
C          C       0.73851   0.52684   0.25403
C          C       0.26149   0.47316   0.25403
C          C       0.26149   0.52684   0.74597
C          C       0.73851   0.47316   0.74597
C          C       0.25403   0.73851   0.52684
C          C       0.25403   0.26149   0.47316
C          C       0.74597   0.26149   0.52684
C          C       0.74597   0.73851   0.47316
C          C       0.52684   0.25403   0.73851
C          C       0.47316   0.25403   0.26149
C          C       0.52684   0.74597   0.26149
C          C       0.47316   0.74597   0.73851
N          N       0.25433   0.48166   0.75454
N          N       0.74567   0.51834   0.75454
N          N       0.74567   0.48166   0.24546
N          N       0.25433   0.51834   0.24546
N          N       0.75454   0.25433   0.48166
N          N       0.75454   0.74567   0.51834
N          N       0.24546   0.74567   0.48166
N          N       0.24546   0.25433   0.51834
N          N       0.48166   0.75454   0.25433
N          N       0.51834   0.75454   0.74567
N          N       0.48166   0.24546   0.74567
N          N       0.51834   0.24546   0.25433
N          N       0.74567   0.51834   0.24546
N          N       0.25433   0.48166   0.24546
N          N       0.25433   0.51834   0.75454
N          N       0.74567   0.48166   0.75454
N          N       0.24546   0.74567   0.51834
N          N       0.24546   0.25433   0.48166
N          N       0.75454   0.25433   0.51834
N          N       0.75454   0.74567   0.48166
N          N       0.51834   0.24546   0.74567
N          N       0.48166   0.24546   0.25433
N          N       0.51834   0.75454   0.25433
N          N       0.48166   0.75454   0.74567
C          C       0.24686   0.47316   0.76282
C          C       0.75314   0.52684   0.76282
C          C       0.75314   0.47316   0.23718
C          C       0.24686   0.52684   0.23718
C          C       0.76282   0.24686   0.47316
C          C       0.76282   0.75314   0.52684
C          C       0.23718   0.75314   0.47316
C          C       0.23718   0.24686   0.52684
C          C       0.47316   0.76282   0.24686
C          C       0.52684   0.76282   0.75314
C          C       0.47316   0.23718   0.75314
C          C       0.52684   0.23718   0.24686
C          C       0.75314   0.52684   0.23718
C          C       0.24686   0.47316   0.23718
C          C       0.24686   0.52684   0.76282
C          C       0.75314   0.47316   0.76282
C          C       0.23718   0.75314   0.52684
C          C       0.23718   0.24686   0.47316
C          C       0.76282   0.24686   0.52684
C          C       0.76282   0.75314   0.47316
C          C       0.52684   0.23718   0.75314
C          C       0.47316   0.23718   0.24686
C          C       0.52684   0.76282   0.24686
C          C       0.47316   0.76282   0.75314
C          C       0.25232   0.45984   0.76220
C          C       0.74768   0.54016   0.76220
C          C       0.74768   0.45984   0.23780
C          C       0.25232   0.54016   0.23780
C          C       0.76220   0.25232   0.45984
C          C       0.76220   0.74768   0.54016
C          C       0.23780   0.74768   0.45984
C          C       0.23780   0.25232   0.54016
C          C       0.45984   0.76220   0.25232
C          C       0.54016   0.76220   0.74768
C          C       0.45984   0.23780   0.74768
C          C       0.54016   0.23780   0.25232
C          C       0.74768   0.54016   0.23780
C          C       0.25232   0.45984   0.23780
C          C       0.25232   0.54016   0.76220
C          C       0.74768   0.45984   0.76220
C          C       0.23780   0.74768   0.54016
C          C       0.23780   0.25232   0.45984
C          C       0.76220   0.25232   0.54016
C          C       0.76220   0.74768   0.45984
C          C       0.54016   0.23780   0.74768
C          C       0.45984   0.23780   0.25232
C          C       0.54016   0.76220   0.25232
C          C       0.45984   0.76220   0.74768
C          C       0.23330   0.47610   0.76785
C          C       0.76670   0.52390   0.76785
C          C       0.76670   0.47610   0.23215
C          C       0.23330   0.52390   0.23215
C          C       0.76785   0.23330   0.47610
C          C       0.76785   0.76670   0.52390
C          C       0.23215   0.76670   0.47610
C          C       0.23215   0.23330   0.52390
C          C       0.47610   0.76785   0.23330
C          C       0.52390   0.76785   0.76670
C          C       0.47610   0.23215   0.76670
C          C       0.52390   0.23215   0.23330
C          C       0.76670   0.52390   0.23215
C          C       0.23330   0.47610   0.23215
C          C       0.23330   0.52390   0.76785
C          C       0.76670   0.47610   0.76785
C          C       0.23215   0.76670   0.52390
C          C       0.23215   0.23330   0.47610
C          C       0.76785   0.23330   0.52390
C          C       0.76785   0.76670   0.47610
C          C       0.52390   0.23215   0.76670
C          C       0.47610   0.23215   0.23330
C          C       0.52390   0.76785   0.23330
C          C       0.47610   0.76785   0.76670
C          C       0.22620   0.48883   0.76563
C          C       0.77380   0.51117   0.76563
C          C       0.77380   0.48883   0.23437
C          C       0.22620   0.51117   0.23437
C          C       0.76563   0.22620   0.48883
C          C       0.76563   0.77380   0.51117
C          C       0.23437   0.77380   0.48883
C          C       0.23437   0.22620   0.51117
C          C       0.48883   0.76563   0.22620
C          C       0.51117   0.76563   0.77380
C          C       0.48883   0.23437   0.77380
C          C       0.51117   0.23437   0.22620
C          C       0.77380   0.51117   0.23437
C          C       0.22620   0.48883   0.23437
C          C       0.22620   0.51117   0.76563
C          C       0.77380   0.48883   0.76563
C          C       0.23437   0.77380   0.51117
C          C       0.23437   0.22620   0.48883
C          C       0.76563   0.22620   0.51117
C          C       0.76563   0.77380   0.48883
C          C       0.51117   0.23437   0.77380
C          C       0.48883   0.23437   0.22620
C          C       0.51117   0.76563   0.22620
C          C       0.48883   0.76563   0.77380
C          C       0.21471   0.50712   0.77333
C          C       0.78529   0.49288   0.77333
C          C       0.78529   0.50712   0.22667
C          C       0.21471   0.49288   0.22667
C          C       0.77333   0.21471   0.50712
C          C       0.77333   0.78529   0.49288
C          C       0.22667   0.78529   0.50712
C          C       0.22667   0.21471   0.49288
C          C       0.50712   0.77333   0.21471
C          C       0.49288   0.77333   0.78529
C          C       0.50712   0.22667   0.78529
C          C       0.49288   0.22667   0.21471
C          C       0.78529   0.49288   0.22667
C          C       0.21471   0.50712   0.22667
C          C       0.21471   0.49288   0.77333
C          C       0.78529   0.50712   0.77333
C          C       0.22667   0.78529   0.49288
C          C       0.22667   0.21471   0.50712
C          C       0.77333   0.21471   0.49288
C          C       0.77333   0.78529   0.50712
C          C       0.49288   0.22667   0.78529
C          C       0.50712   0.22667   0.21471
C          C       0.49288   0.77333   0.21471
C          C       0.50712   0.77333   0.78529
C          C       0.26460   0.47611   0.73185
C          C       0.73540   0.52389   0.73185
C          C       0.73540   0.47611   0.26815
C          C       0.26460   0.52389   0.26815
C          C       0.73185   0.26460   0.47611
C          C       0.73185   0.73540   0.52389
C          C       0.26815   0.73540   0.47611
C          C       0.26815   0.26460   0.52389
C          C       0.47611   0.73185   0.26460
C          C       0.52389   0.73185   0.73540
C          C       0.47611   0.26815   0.73540
C          C       0.52389   0.26815   0.26460
C          C       0.73540   0.52389   0.26815
C          C       0.26460   0.47611   0.26815
C          C       0.26460   0.52389   0.73185
C          C       0.73540   0.47611   0.73185
C          C       0.26815   0.73540   0.52389
C          C       0.26815   0.26460   0.47611
C          C       0.73185   0.26460   0.52389
C          C       0.73185   0.73540   0.47611
C          C       0.52389   0.26815   0.73540
C          C       0.47611   0.26815   0.26460
C          C       0.52389   0.73185   0.26460
C          C       0.47611   0.73185   0.73540
C          C       0.26148   0.48885   0.72514
C          C       0.73852   0.51115   0.72514
C          C       0.73852   0.48885   0.27486
C          C       0.26148   0.51115   0.27486
C          C       0.72514   0.26148   0.48885
C          C       0.72514   0.73852   0.51115
C          C       0.27486   0.73852   0.48885
C          C       0.27486   0.26148   0.51115
C          C       0.48885   0.72514   0.26148
C          C       0.51115   0.72514   0.73852
C          C       0.48885   0.27486   0.73852
C          C       0.51115   0.27486   0.26148
C          C       0.73852   0.51115   0.27486
C          C       0.26148   0.48885   0.27486
C          C       0.26148   0.51115   0.72514
C          C       0.73852   0.48885   0.72514
C          C       0.27486   0.73852   0.51115
C          C       0.27486   0.26148   0.48885
C          C       0.72514   0.26148   0.51115
C          C       0.72514   0.73852   0.48885
C          C       0.51115   0.27486   0.73852
C          C       0.48885   0.27486   0.26148
C          C       0.51115   0.72514   0.26148
C          C       0.48885   0.72514   0.73852
C          C       0.26739   0.49287   0.71263
C          C       0.73261   0.50713   0.71263
C          C       0.73261   0.49287   0.28737
C          C       0.26739   0.50713   0.28737
C          C       0.71263   0.26739   0.49287
C          C       0.71263   0.73261   0.50713
C          C       0.28737   0.73261   0.49287
C          C       0.28737   0.26739   0.50713
C          C       0.49287   0.71263   0.26739
C          C       0.50713   0.71263   0.73261
C          C       0.49287   0.28737   0.73261
C          C       0.50713   0.28737   0.26739
C          C       0.73261   0.50713   0.28737
C          C       0.26739   0.49287   0.28737
C          C       0.26739   0.50713   0.71263
C          C       0.73261   0.49287   0.71263
C          C       0.28737   0.73261   0.50713
C          C       0.28737   0.26739   0.49287
C          C       0.71263   0.26739   0.50713
C          C       0.71263   0.73261   0.49287
C          C       0.50713   0.28737   0.73261
C          C       0.49287   0.28737   0.26739
C          C       0.50713   0.71263   0.26739
C          C       0.49287   0.71263   0.73261
C          C       0.75339   0.04017   0.23730
C          C       0.24661   0.95983   0.23730
C          C       0.24661   0.04017   0.76270
C          C       0.75339   0.95983   0.76270
C          C       0.23730   0.75339   0.04017
C          C       0.23730   0.24661   0.95983
C          C       0.76270   0.24661   0.04017
C          C       0.76270   0.75339   0.95983
C          C       0.04017   0.23730   0.75339
C          C       0.95983   0.23730   0.24661
C          C       0.04017   0.76270   0.24661
C          C       0.95983   0.76270   0.75339
C          C       0.24661   0.95983   0.76270
C          C       0.75339   0.04017   0.76270
C          C       0.75339   0.95983   0.23730
C          C       0.24661   0.04017   0.23730
C          C       0.76270   0.24661   0.95983
C          C       0.76270   0.75339   0.04017
C          C       0.23730   0.75339   0.95983
C          C       0.23730   0.24661   0.04017
C          C       0.95983   0.76270   0.24661
C          C       0.04017   0.76270   0.75339
C          C       0.95983   0.23730   0.75339
C          C       0.04017   0.23730   0.24661
C          C       0.74798   0.02683   0.23680
C          C       0.25202   0.97317   0.23680
C          C       0.25202   0.02683   0.76320
C          C       0.74798   0.97317   0.76320
C          C       0.23680   0.74798   0.02683
C          C       0.23680   0.25202   0.97317
C          C       0.76320   0.25202   0.02683
C          C       0.76320   0.74798   0.97317
C          C       0.02683   0.23680   0.74798
C          C       0.97317   0.23680   0.25202
C          C       0.02683   0.76320   0.25202
C          C       0.97317   0.76320   0.74798
C          C       0.25202   0.97317   0.76320
C          C       0.74798   0.02683   0.76320
C          C       0.74798   0.97317   0.23680
C          C       0.25202   0.02683   0.23680
C          C       0.76320   0.25202   0.97317
C          C       0.76320   0.74798   0.02683
C          C       0.23680   0.74798   0.97317
C          C       0.23680   0.25202   0.02683
C          C       0.97317   0.76320   0.25202
C          C       0.02683   0.76320   0.74798
C          C       0.97317   0.23680   0.74798
C          C       0.02683   0.23680   0.25202
N          N       0.75572   0.01833   0.24484
N          N       0.24428   0.98167   0.24484
N          N       0.24428   0.01833   0.75516
N          N       0.75572   0.98167   0.75516
N          N       0.24484   0.75572   0.01833
N          N       0.24484   0.24428   0.98167
N          N       0.75516   0.24428   0.01833
N          N       0.75516   0.75572   0.98167
N          N       0.01833   0.24484   0.75572
N          N       0.98167   0.24484   0.24428
N          N       0.01833   0.75516   0.24428
N          N       0.98167   0.75516   0.75572
N          N       0.24428   0.98167   0.75516
N          N       0.75572   0.01833   0.75516
N          N       0.75572   0.98167   0.24484
N          N       0.24428   0.01833   0.24484
N          N       0.75516   0.24428   0.98167
N          N       0.75516   0.75572   0.01833
N          N       0.24484   0.75572   0.98167
N          N       0.24484   0.24428   0.01833
N          N       0.98167   0.75516   0.24428
N          N       0.01833   0.75516   0.75572
N          N       0.98167   0.24484   0.75572
N          N       0.01833   0.24484   0.24428
C          C       0.76314   0.02683   0.25319
C          C       0.23686   0.97317   0.25319
C          C       0.23686   0.02683   0.74681
C          C       0.76314   0.97317   0.74681
C          C       0.25319   0.76314   0.02683
C          C       0.25319   0.23686   0.97317
C          C       0.74681   0.23686   0.02683
C          C       0.74681   0.76314   0.97317
C          C       0.02683   0.25319   0.76314
C          C       0.97317   0.25319   0.23686
C          C       0.02683   0.74681   0.23686
C          C       0.97317   0.74681   0.76314
C          C       0.23686   0.97317   0.74681
C          C       0.76314   0.02683   0.74681
C          C       0.76314   0.97317   0.25319
C          C       0.23686   0.02683   0.25319
C          C       0.74681   0.23686   0.97317
C          C       0.74681   0.76314   0.02683
C          C       0.25319   0.76314   0.97317
C          C       0.25319   0.23686   0.02683
C          C       0.97317   0.74681   0.23686
C          C       0.02683   0.74681   0.76314
C          C       0.97317   0.25319   0.76314
C          C       0.02683   0.25319   0.23686
C          C       0.76306   0.04017   0.24775
C          C       0.23694   0.95983   0.24775
C          C       0.23694   0.04017   0.75225
C          C       0.76306   0.95983   0.75225
C          C       0.24775   0.76306   0.04017
C          C       0.24775   0.23694   0.95983
C          C       0.75225   0.23694   0.04017
C          C       0.75225   0.76306   0.95983
C          C       0.04017   0.24775   0.76306
C          C       0.95983   0.24775   0.23694
C          C       0.04017   0.75225   0.23694
C          C       0.95983   0.75225   0.76306
C          C       0.23694   0.95983   0.75225
C          C       0.76306   0.04017   0.75225
C          C       0.76306   0.95983   0.24775
C          C       0.23694   0.04017   0.24775
C          C       0.75225   0.23694   0.95983
C          C       0.75225   0.76306   0.04017
C          C       0.24775   0.76306   0.95983
C          C       0.24775   0.23694   0.04017
C          C       0.95983   0.75225   0.23694
C          C       0.04017   0.75225   0.76306
C          C       0.95983   0.24775   0.76306
C          C       0.04017   0.24775   0.23694
C          C       0.76673   0.02387   0.26719
C          C       0.23327   0.97613   0.26719
C          C       0.23327   0.02387   0.73281
C          C       0.76673   0.97613   0.73281
C          C       0.26719   0.76673   0.02387
C          C       0.26719   0.23327   0.97613
C          C       0.73281   0.23327   0.02387
C          C       0.73281   0.76673   0.97613
C          C       0.02387   0.26719   0.76673
C          C       0.97613   0.26719   0.23327
C          C       0.02387   0.73281   0.23327
C          C       0.97613   0.73281   0.76673
C          C       0.23327   0.97613   0.73281
C          C       0.76673   0.02387   0.73281
C          C       0.76673   0.97613   0.26719
C          C       0.23327   0.02387   0.26719
C          C       0.73281   0.23327   0.97613
C          C       0.73281   0.76673   0.02387
C          C       0.26719   0.76673   0.97613
C          C       0.26719   0.23327   0.02387
C          C       0.97613   0.73281   0.23327
C          C       0.02387   0.73281   0.76673
C          C       0.97613   0.26719   0.76673
C          C       0.02387   0.26719   0.23327
C          C       0.76370   0.01116   0.27403
C          C       0.23630   0.98884   0.27403
C          C       0.23630   0.01116   0.72597
C          C       0.76370   0.98884   0.72597
C          C       0.27403   0.76370   0.01116
C          C       0.27403   0.23630   0.98884
C          C       0.72597   0.23630   0.01116
C          C       0.72597   0.76370   0.98884
C          C       0.01116   0.27403   0.76370
C          C       0.98884   0.27403   0.23630
C          C       0.01116   0.72597   0.23630
C          C       0.98884   0.72597   0.76370
C          C       0.23630   0.98884   0.72597
C          C       0.76370   0.01116   0.72597
C          C       0.76370   0.98884   0.27403
C          C       0.23630   0.01116   0.27403
C          C       0.72597   0.23630   0.98884
C          C       0.72597   0.76370   0.01116
C          C       0.27403   0.76370   0.98884
C          C       0.27403   0.23630   0.01116
C          C       0.98884   0.72597   0.23630
C          C       0.01116   0.72597   0.76370
C          C       0.98884   0.27403   0.76370
C          C       0.01116   0.27403   0.23630
C          C       0.77011   0.99288   0.28629
C          C       0.22989   0.00712   0.28629
C          C       0.22989   0.99288   0.71371
C          C       0.77011   0.00712   0.71371
C          C       0.28629   0.77011   0.99288
C          C       0.28629   0.22989   0.00712
C          C       0.71371   0.22989   0.99288
C          C       0.71371   0.77011   0.00712
C          C       0.99288   0.28629   0.77011
C          C       0.00712   0.28629   0.22989
C          C       0.99288   0.71371   0.22989
C          C       0.00712   0.71371   0.77011
C          C       0.22989   0.00712   0.71371
C          C       0.77011   0.99288   0.71371
C          C       0.77011   0.00712   0.28629
C          C       0.22989   0.99288   0.28629
C          C       0.71371   0.22989   0.00712
C          C       0.71371   0.77011   0.99288
C          C       0.28629   0.77011   0.00712
C          C       0.28629   0.22989   0.99288
C          C       0.00712   0.71371   0.22989
C          C       0.99288   0.71371   0.77011
C          C       0.00712   0.28629   0.77011
C          C       0.99288   0.28629   0.22989
C          C       0.73429   0.02388   0.23214
C          C       0.26571   0.97612   0.23214
C          C       0.26571   0.02388   0.76786
C          C       0.73429   0.97612   0.76786
C          C       0.23214   0.73429   0.02388
C          C       0.23214   0.26571   0.97612
C          C       0.76786   0.26571   0.02388
C          C       0.76786   0.73429   0.97612
C          C       0.02388   0.23214   0.73429
C          C       0.97612   0.23214   0.26571
C          C       0.02388   0.76786   0.26571
C          C       0.97612   0.76786   0.73429
C          C       0.26571   0.97612   0.76786
C          C       0.73429   0.02388   0.76786
C          C       0.73429   0.97612   0.23214
C          C       0.26571   0.02388   0.23214
C          C       0.76786   0.26571   0.97612
C          C       0.76786   0.73429   0.02388
C          C       0.23214   0.73429   0.97612
C          C       0.23214   0.26571   0.02388
C          C       0.97612   0.76786   0.26571
C          C       0.02388   0.76786   0.73429
C          C       0.97612   0.23214   0.73429
C          C       0.02388   0.23214   0.26571
C          C       0.72724   0.01116   0.23459
C          C       0.27276   0.98884   0.23459
C          C       0.27276   0.01116   0.76541
C          C       0.72724   0.98884   0.76541
C          C       0.23459   0.72724   0.01116
C          C       0.23459   0.27276   0.98884
C          C       0.76541   0.27276   0.01116
C          C       0.76541   0.72724   0.98884
C          C       0.01116   0.23459   0.72724
C          C       0.98884   0.23459   0.27276
C          C       0.01116   0.76541   0.27276
C          C       0.98884   0.76541   0.72724
C          C       0.27276   0.98884   0.76541
C          C       0.72724   0.01116   0.76541
C          C       0.72724   0.98884   0.23459
C          C       0.27276   0.01116   0.23459
C          C       0.76541   0.27276   0.98884
C          C       0.76541   0.72724   0.01116
C          C       0.23459   0.72724   0.98884
C          C       0.23459   0.27276   0.01116
C          C       0.98884   0.76541   0.27276
C          C       0.01116   0.76541   0.72724
C          C       0.98884   0.23459   0.72724
C          C       0.01116   0.23459   0.27276
C          C       0.71554   0.00712   0.22723
C          C       0.28446   0.99288   0.22723
C          C       0.28446   0.00712   0.77277
C          C       0.71554   0.99288   0.77277
C          C       0.22723   0.71554   0.00712
C          C       0.22723   0.28446   0.99288
C          C       0.77277   0.28446   0.00712
C          C       0.77277   0.71554   0.99288
C          C       0.00712   0.22723   0.71554
C          C       0.99288   0.22723   0.28446
C          C       0.00712   0.77277   0.28446
C          C       0.99288   0.77277   0.71554
C          C       0.28446   0.99288   0.77277
C          C       0.71554   0.00712   0.77277
C          C       0.71554   0.99288   0.22723
C          C       0.28446   0.00712   0.22723
C          C       0.77277   0.28446   0.99288
C          C       0.77277   0.71554   0.00712
C          C       0.22723   0.71554   0.99288
C          C       0.22723   0.28446   0.00712
C          C       0.99288   0.77277   0.28446
C          C       0.00712   0.77277   0.71554
C          C       0.99288   0.22723   0.71554
C          C       0.00712   0.22723   0.28446
N          N       0.84517   0.15487   0.34484
N          N       0.15483   0.84513   0.34484
N          N       0.15483   0.15487   0.65516
N          N       0.84517   0.84513   0.65516
N          N       0.34484   0.84517   0.15487
N          N       0.34484   0.15483   0.84513
N          N       0.65516   0.15483   0.15487
N          N       0.65516   0.84517   0.84513
N          N       0.15487   0.34484   0.84517
N          N       0.84513   0.34484   0.15483
N          N       0.15487   0.65516   0.15483
N          N       0.84513   0.65516   0.84517
N          N       0.15483   0.84513   0.65516
N          N       0.84517   0.15487   0.65516
N          N       0.84517   0.84513   0.34484
N          N       0.15483   0.15487   0.34484
N          N       0.65516   0.15483   0.84513
N          N       0.65516   0.84517   0.15487
N          N       0.34484   0.84517   0.84513
N          N       0.34484   0.15483   0.15487
N          N       0.84513   0.65516   0.15483
N          N       0.15487   0.65516   0.84517
N          N       0.84513   0.34484   0.84517
N          N       0.15487   0.34484   0.15483
H          H       0.27215   0.70776   0.47204
H          H       0.72785   0.29224   0.47204
H          H       0.72785   0.70776   0.52796
H          H       0.27215   0.29224   0.52796
H          H       0.47204   0.27215   0.70776
H          H       0.47204   0.72785   0.29224
H          H       0.52796   0.72785   0.70776
H          H       0.52796   0.27215   0.29224
H          H       0.70776   0.47204   0.27215
H          H       0.29224   0.47204   0.72785
H          H       0.70776   0.52796   0.72785
H          H       0.29224   0.52796   0.27215
H          H       0.72785   0.29224   0.52796
H          H       0.27215   0.70776   0.52796
H          H       0.27215   0.29224   0.47204
H          H       0.72785   0.70776   0.47204
H          H       0.52796   0.72785   0.29224
H          H       0.52796   0.27215   0.70776
H          H       0.47204   0.27215   0.29224
H          H       0.47204   0.72785   0.70776
H          H       0.29224   0.52796   0.72785
H          H       0.70776   0.52796   0.27215
H          H       0.29224   0.47204   0.27215
H          H       0.70776   0.47204   0.72785
H          H       0.28483   0.69658   0.45280
H          H       0.71517   0.30342   0.45280
H          H       0.71517   0.69658   0.54720
H          H       0.28483   0.30342   0.54720
H          H       0.45280   0.28483   0.69658
H          H       0.45280   0.71517   0.30342
H          H       0.54720   0.71517   0.69658
H          H       0.54720   0.28483   0.30342
H          H       0.69658   0.45280   0.28483
H          H       0.30342   0.45280   0.71517
H          H       0.69658   0.54720   0.71517
H          H       0.30342   0.54720   0.28483
H          H       0.71517   0.30342   0.54720
H          H       0.28483   0.69658   0.54720
H          H       0.28483   0.30342   0.45280
H          H       0.71517   0.69658   0.45280
H          H       0.54720   0.71517   0.30342
H          H       0.54720   0.28483   0.69658
H          H       0.45280   0.28483   0.30342
H          H       0.45280   0.71517   0.69658
H          H       0.30342   0.54720   0.71517
H          H       0.69658   0.54720   0.28483
H          H       0.30342   0.45280   0.28483
H          H       0.69658   0.45280   0.71517
H          H       0.29524   0.73695   0.43641
H          H       0.70476   0.26305   0.43641
H          H       0.70476   0.73695   0.56359
H          H       0.29524   0.26305   0.56359
H          H       0.43641   0.29524   0.73695
H          H       0.43641   0.70476   0.26305
H          H       0.56359   0.70476   0.73695
H          H       0.56359   0.29524   0.26305
H          H       0.73695   0.43641   0.29524
H          H       0.26305   0.43641   0.70476
H          H       0.73695   0.56359   0.70476
H          H       0.26305   0.56359   0.29524
H          H       0.70476   0.26305   0.56359
H          H       0.29524   0.73695   0.56359
H          H       0.29524   0.26305   0.43641
H          H       0.70476   0.73695   0.43641
H          H       0.56359   0.70476   0.26305
H          H       0.56359   0.29524   0.73695
H          H       0.43641   0.29524   0.26305
H          H       0.43641   0.70476   0.73695
H          H       0.26305   0.56359   0.70476
H          H       0.73695   0.56359   0.29524
H          H       0.26305   0.43641   0.29524
H          H       0.73695   0.43641   0.70476
H          H       0.28261   0.74798   0.45553
H          H       0.71739   0.25202   0.45553
H          H       0.71739   0.74798   0.54447
H          H       0.28261   0.25202   0.54447
H          H       0.45553   0.28261   0.74798
H          H       0.45553   0.71739   0.25202
H          H       0.54447   0.71739   0.74798
H          H       0.54447   0.28261   0.25202
H          H       0.74798   0.45553   0.28261
H          H       0.25202   0.45553   0.71739
H          H       0.74798   0.54447   0.71739
H          H       0.25202   0.54447   0.28261
H          H       0.71739   0.25202   0.54447
H          H       0.28261   0.74798   0.54447
H          H       0.28261   0.25202   0.45553
H          H       0.71739   0.74798   0.45553
H          H       0.54447   0.71739   0.25202
H          H       0.54447   0.28261   0.74798
H          H       0.45553   0.28261   0.25202
H          H       0.45553   0.71739   0.74798
H          H       0.25202   0.54447   0.71739
H          H       0.74798   0.54447   0.28261
H          H       0.25202   0.45553   0.28261
H          H       0.74798   0.45553   0.71739
H          H       0.29413   0.72408   0.41668
H          H       0.70587   0.27592   0.41668
H          H       0.70587   0.72408   0.58332
H          H       0.29413   0.27592   0.58332
H          H       0.41668   0.29413   0.72408
H          H       0.41668   0.70587   0.27592
H          H       0.58332   0.70587   0.72408
H          H       0.58332   0.29413   0.27592
H          H       0.72408   0.41668   0.29413
H          H       0.27592   0.41668   0.70587
H          H       0.72408   0.58332   0.70587
H          H       0.27592   0.58332   0.29413
H          H       0.70587   0.27592   0.58332
H          H       0.29413   0.72408   0.58332
H          H       0.29413   0.27592   0.41668
H          H       0.70587   0.72408   0.41668
H          H       0.58332   0.70587   0.27592
H          H       0.58332   0.29413   0.72408
H          H       0.41668   0.29413   0.27592
H          H       0.41668   0.70587   0.72408
H          H       0.27592   0.58332   0.70587
H          H       0.72408   0.58332   0.29413
H          H       0.27592   0.41668   0.29413
H          H       0.72408   0.41668   0.70587
H          H       0.29849   0.72019   0.39191
H          H       0.70151   0.27981   0.39191
H          H       0.70151   0.72019   0.60809
H          H       0.29849   0.27981   0.60809
H          H       0.39191   0.29849   0.72019
H          H       0.39191   0.70151   0.27981
H          H       0.60809   0.70151   0.72019
H          H       0.60809   0.29849   0.27981
H          H       0.72019   0.39191   0.29849
H          H       0.27981   0.39191   0.70151
H          H       0.72019   0.60809   0.70151
H          H       0.27981   0.60809   0.29849
H          H       0.70151   0.27981   0.60809
H          H       0.29849   0.72019   0.60809
H          H       0.29849   0.27981   0.39191
H          H       0.70151   0.72019   0.39191
H          H       0.60809   0.70151   0.27981
H          H       0.60809   0.29849   0.72019
H          H       0.39191   0.29849   0.27981
H          H       0.39191   0.70151   0.72019
H          H       0.27981   0.60809   0.70151
H          H       0.72019   0.60809   0.29849
H          H       0.27981   0.39191   0.29849
H          H       0.72019   0.39191   0.70151
H          H       0.30886   0.70709   0.37290
H          H       0.69114   0.29291   0.37290
H          H       0.69114   0.70709   0.62710
H          H       0.30886   0.29291   0.62710
H          H       0.37290   0.30886   0.70709
H          H       0.37290   0.69114   0.29291
H          H       0.62710   0.69114   0.70709
H          H       0.62710   0.30886   0.29291
H          H       0.70709   0.37290   0.30886
H          H       0.29291   0.37290   0.69114
H          H       0.70709   0.62710   0.69114
H          H       0.29291   0.62710   0.30886
H          H       0.69114   0.29291   0.62710
H          H       0.30886   0.70709   0.62710
H          H       0.30886   0.29291   0.37290
H          H       0.69114   0.70709   0.37290
H          H       0.62710   0.69114   0.29291
H          H       0.62710   0.30886   0.70709
H          H       0.37290   0.30886   0.29291
H          H       0.37290   0.69114   0.70709
H          H       0.29291   0.62710   0.69114
H          H       0.70709   0.62710   0.30886
H          H       0.29291   0.37290   0.30886
H          H       0.70709   0.37290   0.69114
H          H       0.32505   0.67730   0.40230
H          H       0.67495   0.32270   0.40230
H          H       0.67495   0.67730   0.59770
H          H       0.32505   0.32270   0.59770
H          H       0.40230   0.32505   0.67730
H          H       0.40230   0.67495   0.32270
H          H       0.59770   0.67495   0.67730
H          H       0.59770   0.32505   0.32270
H          H       0.67730   0.40230   0.32505
H          H       0.32270   0.40230   0.67495
H          H       0.67730   0.59770   0.67495
H          H       0.32270   0.59770   0.32505
H          H       0.67495   0.32270   0.59770
H          H       0.32505   0.67730   0.59770
H          H       0.32505   0.32270   0.40230
H          H       0.67495   0.67730   0.40230
H          H       0.59770   0.67495   0.32270
H          H       0.59770   0.32505   0.67730
H          H       0.40230   0.32505   0.32270
H          H       0.40230   0.67495   0.67730
H          H       0.32270   0.59770   0.67495
H          H       0.67730   0.59770   0.32505
H          H       0.32270   0.40230   0.32505
H          H       0.67730   0.40230   0.67495
H          H       0.31414   0.69017   0.42125
H          H       0.68586   0.30983   0.42125
H          H       0.68586   0.69017   0.57875
H          H       0.31414   0.30983   0.57875
H          H       0.42125   0.31414   0.69017
H          H       0.42125   0.68586   0.30983
H          H       0.57875   0.68586   0.69017
H          H       0.57875   0.31414   0.30983
H          H       0.69017   0.42125   0.31414
H          H       0.30983   0.42125   0.68586
H          H       0.69017   0.57875   0.68586
H          H       0.30983   0.57875   0.31414
H          H       0.68586   0.30983   0.57875
H          H       0.31414   0.69017   0.57875
H          H       0.31414   0.30983   0.42125
H          H       0.68586   0.69017   0.42125
H          H       0.57875   0.68586   0.30983
H          H       0.57875   0.31414   0.69017
H          H       0.42125   0.31414   0.30983
H          H       0.42125   0.68586   0.69017
H          H       0.30983   0.57875   0.68586
H          H       0.69017   0.57875   0.31414
H          H       0.30983   0.42125   0.31414
H          H       0.69017   0.42125   0.68586
H          H       0.33001   0.70127   0.36239
H          H       0.66999   0.29873   0.36239
H          H       0.66999   0.70127   0.63761
H          H       0.33001   0.29873   0.63761
H          H       0.36239   0.33001   0.70127
H          H       0.36239   0.66999   0.29873
H          H       0.63761   0.66999   0.70127
H          H       0.63761   0.33001   0.29873
H          H       0.70127   0.36239   0.33001
H          H       0.29873   0.36239   0.66999
H          H       0.70127   0.63761   0.66999
H          H       0.29873   0.63761   0.33001
H          H       0.66999   0.29873   0.63761
H          H       0.33001   0.70127   0.63761
H          H       0.33001   0.29873   0.36239
H          H       0.66999   0.70127   0.36239
H          H       0.63761   0.66999   0.29873
H          H       0.63761   0.33001   0.70127
H          H       0.36239   0.33001   0.29873
H          H       0.36239   0.66999   0.70127
H          H       0.29873   0.63761   0.66999
H          H       0.70127   0.63761   0.33001
H          H       0.29873   0.36239   0.33001
H          H       0.70127   0.36239   0.66999
H          H       0.33883   0.68817   0.34263
H          H       0.66117   0.31183   0.34263
H          H       0.66117   0.68817   0.65737
H          H       0.33883   0.31183   0.65737
H          H       0.34263   0.33883   0.68817
H          H       0.34263   0.66117   0.31183
H          H       0.65737   0.66117   0.68817
H          H       0.65737   0.33883   0.31183
H          H       0.68817   0.34263   0.33883
H          H       0.31183   0.34263   0.66117
H          H       0.68817   0.65737   0.66117
H          H       0.31183   0.65737   0.33883
H          H       0.66117   0.31183   0.65737
H          H       0.33883   0.68817   0.65737
H          H       0.33883   0.31183   0.34263
H          H       0.66117   0.68817   0.34263
H          H       0.65737   0.66117   0.31183
H          H       0.65737   0.33883   0.68817
H          H       0.34263   0.33883   0.31183
H          H       0.34263   0.66117   0.68817
H          H       0.31183   0.65737   0.66117
H          H       0.68817   0.65737   0.33883
H          H       0.31183   0.34263   0.33883
H          H       0.68817   0.34263   0.66117
H          H       0.32949   0.64981   0.36375
H          H       0.67051   0.35019   0.36375
H          H       0.67051   0.64981   0.63625
H          H       0.32949   0.35019   0.63625
H          H       0.36375   0.32949   0.64981
H          H       0.36375   0.67051   0.35019
H          H       0.63625   0.67051   0.64981
H          H       0.63625   0.32949   0.35019
H          H       0.64981   0.36375   0.32949
H          H       0.35019   0.36375   0.67051
H          H       0.64981   0.63625   0.67051
H          H       0.35019   0.63625   0.32949
H          H       0.67051   0.35019   0.63625
H          H       0.32949   0.64981   0.63625
H          H       0.32949   0.35019   0.36375
H          H       0.67051   0.64981   0.36375
H          H       0.63625   0.67051   0.35019
H          H       0.63625   0.32949   0.64981
H          H       0.36375   0.32949   0.35019
H          H       0.36375   0.67051   0.64981
H          H       0.35019   0.63625   0.67051
H          H       0.64981   0.63625   0.32949
H          H       0.35019   0.36375   0.32949
H          H       0.64981   0.36375   0.67051
H          H       0.31982   0.66286   0.38322
H          H       0.68018   0.33714   0.38322
H          H       0.68018   0.66286   0.61678
H          H       0.31982   0.33714   0.61678
H          H       0.38322   0.31982   0.66286
H          H       0.38322   0.68018   0.33714
H          H       0.61678   0.68018   0.66286
H          H       0.61678   0.31982   0.33714
H          H       0.66286   0.38322   0.31982
H          H       0.33714   0.38322   0.68018
H          H       0.66286   0.61678   0.68018
H          H       0.33714   0.61678   0.31982
H          H       0.68018   0.33714   0.61678
H          H       0.31982   0.66286   0.61678
H          H       0.31982   0.33714   0.38322
H          H       0.68018   0.66286   0.38322
H          H       0.61678   0.68018   0.33714
H          H       0.61678   0.31982   0.66286
H          H       0.38322   0.31982   0.33714
H          H       0.38322   0.68018   0.66286
H          H       0.33714   0.61678   0.68018
H          H       0.66286   0.61678   0.31982
H          H       0.33714   0.38322   0.31982
H          H       0.66286   0.38322   0.68018
H          H       0.76012   0.21036   0.46162
H          H       0.23988   0.78964   0.46162
H          H       0.23988   0.21036   0.53838
H          H       0.76012   0.78964   0.53838
H          H       0.46162   0.76012   0.21036
H          H       0.46162   0.23988   0.78964
H          H       0.53838   0.23988   0.21036
H          H       0.53838   0.76012   0.78964
H          H       0.21036   0.46162   0.76012
H          H       0.78964   0.46162   0.23988
H          H       0.21036   0.53838   0.23988
H          H       0.78964   0.53838   0.76012
H          H       0.23988   0.78964   0.53838
H          H       0.76012   0.21036   0.53838
H          H       0.76012   0.78964   0.46162
H          H       0.23988   0.21036   0.46162
H          H       0.53838   0.23988   0.78964
H          H       0.53838   0.76012   0.21036
H          H       0.46162   0.76012   0.78964
H          H       0.46162   0.23988   0.21036
H          H       0.78964   0.53838   0.23988
H          H       0.21036   0.53838   0.76012
H          H       0.78964   0.46162   0.76012
H          H       0.21036   0.46162   0.23988
H          H       0.77306   0.19857   0.44302
H          H       0.22694   0.80143   0.44302
H          H       0.22694   0.19857   0.55698
H          H       0.77306   0.80143   0.55698
H          H       0.44302   0.77306   0.19857
H          H       0.44302   0.22694   0.80143
H          H       0.55698   0.22694   0.19857
H          H       0.55698   0.77306   0.80143
H          H       0.19857   0.44302   0.77306
H          H       0.80143   0.44302   0.22694
H          H       0.19857   0.55698   0.22694
H          H       0.80143   0.55698   0.77306
H          H       0.22694   0.80143   0.55698
H          H       0.77306   0.19857   0.55698
H          H       0.77306   0.80143   0.44302
H          H       0.22694   0.19857   0.44302
H          H       0.55698   0.22694   0.80143
H          H       0.55698   0.77306   0.19857
H          H       0.44302   0.77306   0.80143
H          H       0.44302   0.22694   0.19857
H          H       0.80143   0.55698   0.22694
H          H       0.19857   0.55698   0.77306
H          H       0.80143   0.44302   0.77306
H          H       0.19857   0.44302   0.22694
H          H       0.80633   0.22830   0.44766
H          H       0.19367   0.77170   0.44766
H          H       0.19367   0.22830   0.55234
H          H       0.80633   0.77170   0.55234
H          H       0.44766   0.80633   0.22830
H          H       0.44766   0.19367   0.77170
H          H       0.55234   0.19367   0.22830
H          H       0.55234   0.80633   0.77170
H          H       0.22830   0.44766   0.80633
H          H       0.77170   0.44766   0.19367
H          H       0.22830   0.55234   0.19367
H          H       0.77170   0.55234   0.80633
H          H       0.19367   0.77170   0.55234
H          H       0.80633   0.22830   0.55234
H          H       0.80633   0.77170   0.44766
H          H       0.19367   0.22830   0.44766
H          H       0.55234   0.19367   0.77170
H          H       0.55234   0.80633   0.22830
H          H       0.44766   0.80633   0.77170
H          H       0.44766   0.19367   0.22830
H          H       0.77170   0.55234   0.19367
H          H       0.22830   0.55234   0.80633
H          H       0.77170   0.44766   0.80633
H          H       0.22830   0.44766   0.19367
H          H       0.79338   0.23993   0.46601
H          H       0.20662   0.76007   0.46601
H          H       0.20662   0.23993   0.53399
H          H       0.79338   0.76007   0.53399
H          H       0.46601   0.79338   0.23993
H          H       0.46601   0.20662   0.76007
H          H       0.53399   0.20662   0.23993
H          H       0.53399   0.79338   0.76007
H          H       0.23993   0.46601   0.79338
H          H       0.76007   0.46601   0.20662
H          H       0.23993   0.53399   0.20662
H          H       0.76007   0.53399   0.79338
H          H       0.20662   0.76007   0.53399
H          H       0.79338   0.23993   0.53399
H          H       0.79338   0.76007   0.46601
H          H       0.20662   0.23993   0.46601
H          H       0.53399   0.20662   0.76007
H          H       0.53399   0.79338   0.23993
H          H       0.46601   0.79338   0.76007
H          H       0.46601   0.20662   0.23993
H          H       0.76007   0.53399   0.20662
H          H       0.23993   0.53399   0.79338
H          H       0.76007   0.46601   0.79338
H          H       0.23993   0.46601   0.20662
H          H       0.81405   0.21856   0.42895
H          H       0.18595   0.78144   0.42895
H          H       0.18595   0.21856   0.57105
H          H       0.81405   0.78144   0.57105
H          H       0.42895   0.81405   0.21856
H          H       0.42895   0.18595   0.78144
H          H       0.57105   0.18595   0.21856
H          H       0.57105   0.81405   0.78144
H          H       0.21856   0.42895   0.81405
H          H       0.78144   0.42895   0.18595
H          H       0.21856   0.57105   0.18595
H          H       0.78144   0.57105   0.81405
H          H       0.18595   0.78144   0.57105
H          H       0.81405   0.21856   0.57105
H          H       0.81405   0.78144   0.42895
H          H       0.18595   0.21856   0.42895
H          H       0.57105   0.18595   0.78144
H          H       0.57105   0.81405   0.21856
H          H       0.42895   0.81405   0.78144
H          H       0.42895   0.18595   0.21856
H          H       0.78144   0.57105   0.18595
H          H       0.21856   0.57105   0.81405
H          H       0.78144   0.42895   0.81405
H          H       0.21856   0.42895   0.18595
H          H       0.83153   0.21466   0.41088
H          H       0.16847   0.78534   0.41088
H          H       0.16847   0.21466   0.58912
H          H       0.83153   0.78534   0.58912
H          H       0.41088   0.83153   0.21466
H          H       0.41088   0.16847   0.78534
H          H       0.58912   0.16847   0.21466
H          H       0.58912   0.83153   0.78534
H          H       0.21466   0.41088   0.83153
H          H       0.78534   0.41088   0.16847
H          H       0.21466   0.58912   0.16847
H          H       0.78534   0.58912   0.83153
H          H       0.16847   0.78534   0.58912
H          H       0.83153   0.21466   0.58912
H          H       0.83153   0.78534   0.41088
H          H       0.16847   0.21466   0.41088
H          H       0.58912   0.16847   0.78534
H          H       0.58912   0.83153   0.21466
H          H       0.41088   0.83153   0.78534
H          H       0.41088   0.16847   0.21466
H          H       0.78534   0.58912   0.16847
H          H       0.21466   0.58912   0.83153
H          H       0.78534   0.41088   0.83153
H          H       0.21466   0.41088   0.16847
H          H       0.84096   0.20131   0.39144
H          H       0.15904   0.79869   0.39144
H          H       0.15904   0.20131   0.60856
H          H       0.84096   0.79869   0.60856
H          H       0.39144   0.84096   0.20131
H          H       0.39144   0.15904   0.79869
H          H       0.60856   0.15904   0.20131
H          H       0.60856   0.84096   0.79869
H          H       0.20131   0.39144   0.84096
H          H       0.79869   0.39144   0.15904
H          H       0.20131   0.60856   0.15904
H          H       0.79869   0.60856   0.84096
H          H       0.15904   0.79869   0.60856
H          H       0.84096   0.20131   0.60856
H          H       0.84096   0.79869   0.39144
H          H       0.15904   0.20131   0.39144
H          H       0.60856   0.15904   0.79869
H          H       0.60856   0.84096   0.20131
H          H       0.39144   0.84096   0.79869
H          H       0.39144   0.15904   0.20131
H          H       0.79869   0.60856   0.15904
H          H       0.20131   0.60856   0.84096
H          H       0.79869   0.39144   0.84096
H          H       0.20131   0.39144   0.15904
H          H       0.80792   0.17135   0.39605
H          H       0.19208   0.82865   0.39605
H          H       0.19208   0.17135   0.60395
H          H       0.80792   0.82865   0.60395
H          H       0.39605   0.80792   0.17135
H          H       0.39605   0.19208   0.82865
H          H       0.60395   0.19208   0.17135
H          H       0.60395   0.80792   0.82865
H          H       0.17135   0.39605   0.80792
H          H       0.82865   0.39605   0.19208
H          H       0.17135   0.60395   0.19208
H          H       0.82865   0.60395   0.80792
H          H       0.19208   0.82865   0.60395
H          H       0.80792   0.17135   0.60395
H          H       0.80792   0.82865   0.39605
H          H       0.19208   0.17135   0.39605
H          H       0.60395   0.19208   0.82865
H          H       0.60395   0.80792   0.17135
H          H       0.39605   0.80792   0.82865
H          H       0.39605   0.19208   0.17135
H          H       0.82865   0.60395   0.19208
H          H       0.17135   0.60395   0.80792
H          H       0.82865   0.39605   0.80792
H          H       0.17135   0.39605   0.19208
H          H       0.79867   0.18454   0.41560
H          H       0.20133   0.81546   0.41560
H          H       0.20133   0.18454   0.58440
H          H       0.79867   0.81546   0.58440
H          H       0.41560   0.79867   0.18454
H          H       0.41560   0.20133   0.81546
H          H       0.58440   0.20133   0.18454
H          H       0.58440   0.79867   0.81546
H          H       0.18454   0.41560   0.79867
H          H       0.81546   0.41560   0.20133
H          H       0.18454   0.58440   0.20133
H          H       0.81546   0.58440   0.79867
H          H       0.20133   0.81546   0.58440
H          H       0.79867   0.18454   0.58440
H          H       0.79867   0.81546   0.41560
H          H       0.20133   0.18454   0.41560
H          H       0.58440   0.20133   0.81546
H          H       0.58440   0.79867   0.18454
H          H       0.41560   0.79867   0.81546
H          H       0.41560   0.20133   0.18454
H          H       0.81546   0.58440   0.20133
H          H       0.18454   0.58440   0.79867
H          H       0.81546   0.41560   0.79867
H          H       0.18454   0.41560   0.20133
H          H       0.83493   0.19569   0.36768
H          H       0.16507   0.80431   0.36768
H          H       0.16507   0.19569   0.63232
H          H       0.83493   0.80431   0.63232
H          H       0.36768   0.83493   0.19569
H          H       0.36768   0.16507   0.80431
H          H       0.63232   0.16507   0.19569
H          H       0.63232   0.83493   0.80431
H          H       0.19569   0.36768   0.83493
H          H       0.80431   0.36768   0.16507
H          H       0.19569   0.63232   0.16507
H          H       0.80431   0.63232   0.83493
H          H       0.16507   0.80431   0.63232
H          H       0.83493   0.19569   0.63232
H          H       0.83493   0.80431   0.36768
H          H       0.16507   0.19569   0.36768
H          H       0.63232   0.16507   0.80431
H          H       0.63232   0.83493   0.19569
H          H       0.36768   0.83493   0.80431
H          H       0.36768   0.16507   0.19569
H          H       0.80431   0.63232   0.16507
H          H       0.19569   0.63232   0.83493
H          H       0.80431   0.36768   0.83493
H          H       0.19569   0.36768   0.16507
H          H       0.84344   0.18274   0.34757
H          H       0.15656   0.81726   0.34757
H          H       0.15656   0.18274   0.65243
H          H       0.84344   0.81726   0.65243
H          H       0.34757   0.84344   0.18274
H          H       0.34757   0.15656   0.81726
H          H       0.65243   0.15656   0.18274
H          H       0.65243   0.84344   0.81726
H          H       0.18274   0.34757   0.84344
H          H       0.81726   0.34757   0.15656
H          H       0.18274   0.65243   0.15656
H          H       0.81726   0.65243   0.84344
H          H       0.15656   0.81726   0.65243
H          H       0.84344   0.18274   0.65243
H          H       0.84344   0.81726   0.34757
H          H       0.15656   0.18274   0.34757
H          H       0.65243   0.15656   0.81726
H          H       0.65243   0.84344   0.18274
H          H       0.34757   0.84344   0.81726
H          H       0.34757   0.15656   0.18274
H          H       0.81726   0.65243   0.15656
H          H       0.18274   0.65243   0.84344
H          H       0.81726   0.34757   0.84344
H          H       0.18274   0.34757   0.15656
H          H       0.83610   0.14422   0.36915
H          H       0.16390   0.85578   0.36915
H          H       0.16390   0.14422   0.63085
H          H       0.83610   0.85578   0.63085
H          H       0.36915   0.83610   0.14422
H          H       0.36915   0.16390   0.85578
H          H       0.63085   0.16390   0.14422
H          H       0.63085   0.83610   0.85578
H          H       0.14422   0.36915   0.83610
H          H       0.85578   0.36915   0.16390
H          H       0.14422   0.63085   0.16390
H          H       0.85578   0.63085   0.83610
H          H       0.16390   0.85578   0.63085
H          H       0.83610   0.14422   0.63085
H          H       0.83610   0.85578   0.36915
H          H       0.16390   0.14422   0.36915
H          H       0.63085   0.16390   0.85578
H          H       0.63085   0.83610   0.14422
H          H       0.36915   0.83610   0.85578
H          H       0.36915   0.16390   0.14422
H          H       0.85578   0.63085   0.16390
H          H       0.14422   0.63085   0.83610
H          H       0.85578   0.36915   0.83610
H          H       0.14422   0.36915   0.16390
H          H       0.82761   0.15713   0.38935
H          H       0.17239   0.84287   0.38935
H          H       0.17239   0.15713   0.61065
H          H       0.82761   0.84287   0.61065
H          H       0.38935   0.82761   0.15713
H          H       0.38935   0.17239   0.84287
H          H       0.61065   0.17239   0.15713
H          H       0.61065   0.82761   0.84287
H          H       0.15713   0.38935   0.82761
H          H       0.84287   0.38935   0.17239
H          H       0.15713   0.61065   0.17239
H          H       0.84287   0.61065   0.82761
H          H       0.17239   0.84287   0.61065
H          H       0.82761   0.15713   0.61065
H          H       0.82761   0.84287   0.38935
H          H       0.17239   0.15713   0.38935
H          H       0.61065   0.17239   0.84287
H          H       0.61065   0.82761   0.15713
H          H       0.38935   0.82761   0.84287
H          H       0.38935   0.17239   0.15713
H          H       0.84287   0.61065   0.17239
H          H       0.15713   0.61065   0.82761
H          H       0.84287   0.38935   0.82761
H          H       0.15713   0.38935   0.17239
H          H       0.26305   0.20713   0.96625
H          H       0.73695   0.79287   0.96625
H          H       0.73695   0.20713   0.03375
H          H       0.26305   0.79287   0.03375
H          H       0.96625   0.26305   0.20713
H          H       0.96625   0.73695   0.79287
H          H       0.03375   0.73695   0.20713
H          H       0.03375   0.26305   0.79287
H          H       0.20713   0.96625   0.26305
H          H       0.79287   0.96625   0.73695
H          H       0.20713   0.03375   0.73695
H          H       0.79287   0.03375   0.26305
H          H       0.73695   0.79287   0.03375
H          H       0.26305   0.20713   0.03375
H          H       0.26305   0.79287   0.96625
H          H       0.73695   0.20713   0.96625
H          H       0.03375   0.73695   0.79287
H          H       0.03375   0.26305   0.20713
H          H       0.96625   0.26305   0.79287
H          H       0.96625   0.73695   0.20713
H          H       0.79287   0.03375   0.73695
H          H       0.20713   0.03375   0.26305
H          H       0.79287   0.96625   0.26305
H          H       0.20713   0.96625   0.73695
H          H       0.27599   0.19527   0.94768
H          H       0.72401   0.80473   0.94768
H          H       0.72401   0.19527   0.05232
H          H       0.27599   0.80473   0.05232
H          H       0.94768   0.27599   0.19527
H          H       0.94768   0.72401   0.80473
H          H       0.05232   0.72401   0.19527
H          H       0.05232   0.27599   0.80473
H          H       0.19527   0.94768   0.27599
H          H       0.80473   0.94768   0.72401
H          H       0.19527   0.05232   0.72401
H          H       0.80473   0.05232   0.27599
H          H       0.72401   0.80473   0.05232
H          H       0.27599   0.19527   0.05232
H          H       0.27599   0.80473   0.94768
H          H       0.72401   0.19527   0.94768
H          H       0.05232   0.72401   0.80473
H          H       0.05232   0.27599   0.19527
H          H       0.94768   0.27599   0.80473
H          H       0.94768   0.72401   0.19527
H          H       0.80473   0.05232   0.72401
H          H       0.19527   0.05232   0.27599
H          H       0.80473   0.94768   0.27599
H          H       0.19527   0.94768   0.72401
H          H       0.30189   0.23156   0.94288
H          H       0.69811   0.76844   0.94288
H          H       0.69811   0.23156   0.05712
H          H       0.30189   0.76844   0.05712
H          H       0.94288   0.30189   0.23156
H          H       0.94288   0.69811   0.76844
H          H       0.05712   0.69811   0.23156
H          H       0.05712   0.30189   0.76844
H          H       0.23156   0.94288   0.30189
H          H       0.76844   0.94288   0.69811
H          H       0.23156   0.05712   0.69811
H          H       0.76844   0.05712   0.30189
H          H       0.69811   0.76844   0.05712
H          H       0.30189   0.23156   0.05712
H          H       0.30189   0.76844   0.94288
H          H       0.69811   0.23156   0.94288
H          H       0.05712   0.69811   0.76844
H          H       0.05712   0.30189   0.23156
H          H       0.94288   0.30189   0.76844
H          H       0.94288   0.69811   0.23156
H          H       0.76844   0.05712   0.69811
H          H       0.23156   0.05712   0.30189
H          H       0.76844   0.94288   0.30189
H          H       0.23156   0.94288   0.69811
H          H       0.28910   0.24315   0.96139
H          H       0.71090   0.75685   0.96139
H          H       0.71090   0.24315   0.03861
H          H       0.28910   0.75685   0.03861
H          H       0.96139   0.28910   0.24315
H          H       0.96139   0.71090   0.75685
H          H       0.03861   0.71090   0.24315
H          H       0.03861   0.28910   0.75685
H          H       0.24315   0.96139   0.28910
H          H       0.75685   0.96139   0.71090
H          H       0.24315   0.03861   0.71090
H          H       0.75685   0.03861   0.28910
H          H       0.71090   0.75685   0.03861
H          H       0.28910   0.24315   0.03861
H          H       0.28910   0.75685   0.96139
H          H       0.71090   0.24315   0.96139
H          H       0.03861   0.71090   0.75685
H          H       0.03861   0.28910   0.24315
H          H       0.96139   0.28910   0.75685
H          H       0.96139   0.71090   0.24315
H          H       0.75685   0.03861   0.71090
H          H       0.24315   0.03861   0.28910
H          H       0.75685   0.96139   0.28910
H          H       0.24315   0.96139   0.71090
H          H       0.31423   0.21756   0.93020
H          H       0.68577   0.78244   0.93020
H          H       0.68577   0.21756   0.06980
H          H       0.31423   0.78244   0.06980
H          H       0.93020   0.31423   0.21756
H          H       0.93020   0.68577   0.78244
H          H       0.06980   0.68577   0.21756
H          H       0.06980   0.31423   0.78244
H          H       0.21756   0.93020   0.31423
H          H       0.78244   0.93020   0.68577
H          H       0.21756   0.06980   0.68577
H          H       0.78244   0.06980   0.31423
H          H       0.68577   0.78244   0.06980
H          H       0.31423   0.21756   0.06980
H          H       0.31423   0.78244   0.93020
H          H       0.68577   0.21756   0.93020
H          H       0.06980   0.68577   0.78244
H          H       0.06980   0.31423   0.21756
H          H       0.93020   0.31423   0.78244
H          H       0.93020   0.68577   0.21756
H          H       0.78244   0.06980   0.68577
H          H       0.21756   0.06980   0.31423
H          H       0.78244   0.93020   0.31423
H          H       0.21756   0.93020   0.68577
H          H       0.33170   0.21377   0.91207
H          H       0.66830   0.78623   0.91207
H          H       0.66830   0.21377   0.08793
H          H       0.33170   0.78623   0.08793
H          H       0.91207   0.33170   0.21377
H          H       0.91207   0.66830   0.78623
H          H       0.08793   0.66830   0.21377
H          H       0.08793   0.33170   0.78623
H          H       0.21377   0.91207   0.33170
H          H       0.78623   0.91207   0.66830
H          H       0.21377   0.08793   0.66830
H          H       0.78623   0.08793   0.33170
H          H       0.66830   0.78623   0.08793
H          H       0.33170   0.21377   0.08793
H          H       0.33170   0.78623   0.91207
H          H       0.66830   0.21377   0.91207
H          H       0.08793   0.66830   0.78623
H          H       0.08793   0.33170   0.21377
H          H       0.91207   0.33170   0.78623
H          H       0.91207   0.66830   0.21377
H          H       0.78623   0.08793   0.66830
H          H       0.21377   0.08793   0.33170
H          H       0.78623   0.91207   0.33170
H          H       0.21377   0.91207   0.66830
H          H       0.34112   0.20054   0.89252
H          H       0.65888   0.79946   0.89252
H          H       0.65888   0.20054   0.10748
H          H       0.34112   0.79946   0.10748
H          H       0.89252   0.34112   0.20054
H          H       0.89252   0.65888   0.79946
H          H       0.10748   0.65888   0.20054
H          H       0.10748   0.34112   0.79946
H          H       0.20054   0.89252   0.34112
H          H       0.79946   0.89252   0.65888
H          H       0.20054   0.10748   0.65888
H          H       0.79946   0.10748   0.34112
H          H       0.65888   0.79946   0.10748
H          H       0.34112   0.20054   0.10748
H          H       0.34112   0.79946   0.89252
H          H       0.65888   0.20054   0.89252
H          H       0.10748   0.65888   0.79946
H          H       0.10748   0.34112   0.20054
H          H       0.89252   0.34112   0.79946
H          H       0.89252   0.65888   0.20054
H          H       0.79946   0.10748   0.65888
H          H       0.20054   0.10748   0.34112
H          H       0.79946   0.89252   0.34112
H          H       0.20054   0.89252   0.65888
H          H       0.30719   0.17144   0.89591
H          H       0.69281   0.82856   0.89591
H          H       0.69281   0.17144   0.10409
H          H       0.30719   0.82856   0.10409
H          H       0.89591   0.30719   0.17144
H          H       0.89591   0.69281   0.82856
H          H       0.10409   0.69281   0.17144
H          H       0.10409   0.30719   0.82856
H          H       0.17144   0.89591   0.30719
H          H       0.82856   0.89591   0.69281
H          H       0.17144   0.10409   0.69281
H          H       0.82856   0.10409   0.30719
H          H       0.69281   0.82856   0.10409
H          H       0.30719   0.17144   0.10409
H          H       0.30719   0.82856   0.89591
H          H       0.69281   0.17144   0.89591
H          H       0.10409   0.69281   0.82856
H          H       0.10409   0.30719   0.17144
H          H       0.89591   0.30719   0.82856
H          H       0.89591   0.69281   0.17144
H          H       0.82856   0.10409   0.69281
H          H       0.17144   0.10409   0.30719
H          H       0.82856   0.89591   0.30719
H          H       0.17144   0.89591   0.69281
H          H       0.29792   0.18450   0.91555
H          H       0.70208   0.81550   0.91555
H          H       0.70208   0.18450   0.08445
H          H       0.29792   0.81550   0.08445
H          H       0.91555   0.29792   0.18450
H          H       0.91555   0.70208   0.81550
H          H       0.08445   0.70208   0.18450
H          H       0.08445   0.29792   0.81550
H          H       0.18450   0.91555   0.29792
H          H       0.81550   0.91555   0.70208
H          H       0.18450   0.08445   0.70208
H          H       0.81550   0.08445   0.29792
H          H       0.70208   0.81550   0.08445
H          H       0.29792   0.18450   0.08445
H          H       0.29792   0.81550   0.91555
H          H       0.70208   0.18450   0.91555
H          H       0.08445   0.70208   0.81550
H          H       0.08445   0.29792   0.18450
H          H       0.91555   0.29792   0.81550
H          H       0.91555   0.70208   0.18450
H          H       0.81550   0.08445   0.70208
H          H       0.18450   0.08445   0.29792
H          H       0.81550   0.91555   0.29792
H          H       0.18450   0.91555   0.70208
H          H       0.33518   0.19553   0.86845
H          H       0.66482   0.80447   0.86845
H          H       0.66482   0.19553   0.13155
H          H       0.33518   0.80447   0.13155
H          H       0.86845   0.33518   0.19553
H          H       0.86845   0.66482   0.80447
H          H       0.13155   0.66482   0.19553
H          H       0.13155   0.33518   0.80447
H          H       0.19553   0.86845   0.33518
H          H       0.80447   0.86845   0.66482
H          H       0.19553   0.13155   0.66482
H          H       0.80447   0.13155   0.33518
H          H       0.66482   0.80447   0.13155
H          H       0.33518   0.19553   0.13155
H          H       0.33518   0.80447   0.86845
H          H       0.66482   0.19553   0.86845
H          H       0.13155   0.66482   0.80447
H          H       0.13155   0.33518   0.19553
H          H       0.86845   0.33518   0.80447
H          H       0.86845   0.66482   0.19553
H          H       0.80447   0.13155   0.66482
H          H       0.19553   0.13155   0.33518
H          H       0.80447   0.86845   0.33518
H          H       0.19553   0.86845   0.66482
H          H       0.34367   0.18270   0.84825
H          H       0.65633   0.81730   0.84825
H          H       0.65633   0.18270   0.15175
H          H       0.34367   0.81730   0.15175
H          H       0.84825   0.34367   0.18270
H          H       0.84825   0.65633   0.81730
H          H       0.15175   0.65633   0.18270
H          H       0.15175   0.34367   0.81730
H          H       0.18270   0.84825   0.34367
H          H       0.81730   0.84825   0.65633
H          H       0.18270   0.15175   0.65633
H          H       0.81730   0.15175   0.34367
H          H       0.65633   0.81730   0.15175
H          H       0.34367   0.18270   0.15175
H          H       0.34367   0.81730   0.84825
H          H       0.65633   0.18270   0.84825
H          H       0.15175   0.65633   0.81730
H          H       0.15175   0.34367   0.18270
H          H       0.84825   0.34367   0.81730
H          H       0.84825   0.65633   0.18270
H          H       0.81730   0.15175   0.65633
H          H       0.18270   0.15175   0.34367
H          H       0.81730   0.84825   0.34367
H          H       0.18270   0.84825   0.65633
H          H       0.33531   0.14403   0.86919
H          H       0.66469   0.85597   0.86919
H          H       0.66469   0.14403   0.13081
H          H       0.33531   0.85597   0.13081
H          H       0.86919   0.33531   0.14403
H          H       0.86919   0.66469   0.85597
H          H       0.13081   0.66469   0.14403
H          H       0.13081   0.33531   0.85597
H          H       0.14403   0.86919   0.33531
H          H       0.85597   0.86919   0.66469
H          H       0.14403   0.13081   0.66469
H          H       0.85597   0.13081   0.33531
H          H       0.66469   0.85597   0.13081
H          H       0.33531   0.14403   0.13081
H          H       0.33531   0.85597   0.86919
H          H       0.66469   0.14403   0.86919
H          H       0.13081   0.66469   0.85597
H          H       0.13081   0.33531   0.14403
H          H       0.86919   0.33531   0.85597
H          H       0.86919   0.66469   0.14403
H          H       0.85597   0.13081   0.66469
H          H       0.14403   0.13081   0.33531
H          H       0.85597   0.86919   0.33531
H          H       0.14403   0.86919   0.66469
H          H       0.32679   0.15682   0.88946
H          H       0.67321   0.84318   0.88946
H          H       0.67321   0.15682   0.11054
H          H       0.32679   0.84318   0.11054
H          H       0.88946   0.32679   0.15682
H          H       0.88946   0.67321   0.84318
H          H       0.11054   0.67321   0.15682
H          H       0.11054   0.32679   0.84318
H          H       0.15682   0.88946   0.32679
H          H       0.84318   0.88946   0.67321
H          H       0.15682   0.11054   0.67321
H          H       0.84318   0.11054   0.32679
H          H       0.67321   0.84318   0.11054
H          H       0.32679   0.15682   0.11054
H          H       0.32679   0.84318   0.88946
H          H       0.67321   0.15682   0.88946
H          H       0.11054   0.67321   0.84318
H          H       0.11054   0.32679   0.15682
H          H       0.88946   0.32679   0.84318
H          H       0.88946   0.67321   0.15682
H          H       0.84318   0.11054   0.67321
H          H       0.15682   0.11054   0.32679
H          H       0.84318   0.88946   0.32679
H          H       0.15682   0.88946   0.67321
H          H       0.75971   0.71160   0.96145
H          H       0.24029   0.28840   0.96145
H          H       0.24029   0.71160   0.03855
H          H       0.75971   0.28840   0.03855
H          H       0.96145   0.75971   0.71160
H          H       0.96145   0.24029   0.28840
H          H       0.03855   0.24029   0.71160
H          H       0.03855   0.75971   0.28840
H          H       0.71160   0.96145   0.75971
H          H       0.28840   0.96145   0.24029
H          H       0.71160   0.03855   0.24029
H          H       0.28840   0.03855   0.75971
H          H       0.24029   0.28840   0.03855
H          H       0.75971   0.71160   0.03855
H          H       0.75971   0.28840   0.96145
H          H       0.24029   0.71160   0.96145
H          H       0.03855   0.24029   0.28840
H          H       0.03855   0.75971   0.71160
H          H       0.96145   0.75971   0.28840
H          H       0.96145   0.24029   0.71160
H          H       0.28840   0.03855   0.24029
H          H       0.71160   0.03855   0.75971
H          H       0.28840   0.96145   0.75971
H          H       0.71160   0.96145   0.24029
H          H       0.77252   0.69965   0.94284
H          H       0.22748   0.30035   0.94284
H          H       0.22748   0.69965   0.05716
H          H       0.77252   0.30035   0.05716
H          H       0.94284   0.77252   0.69965
H          H       0.94284   0.22748   0.30035
H          H       0.05716   0.22748   0.69965
H          H       0.05716   0.77252   0.30035
H          H       0.69965   0.94284   0.77252
H          H       0.30035   0.94284   0.22748
H          H       0.69965   0.05716   0.22748
H          H       0.30035   0.05716   0.77252
H          H       0.22748   0.30035   0.05716
H          H       0.77252   0.69965   0.05716
H          H       0.77252   0.30035   0.94284
H          H       0.22748   0.69965   0.94284
H          H       0.05716   0.22748   0.30035
H          H       0.05716   0.77252   0.69965
H          H       0.94284   0.77252   0.30035
H          H       0.94284   0.22748   0.69965
H          H       0.30035   0.05716   0.22748
H          H       0.69965   0.05716   0.77252
H          H       0.30035   0.94284   0.77252
H          H       0.69965   0.94284   0.22748
H          H       0.80647   0.72850   0.94803
H          H       0.19353   0.27150   0.94803
H          H       0.19353   0.72850   0.05197
H          H       0.80647   0.27150   0.05197
H          H       0.94803   0.80647   0.72850
H          H       0.94803   0.19353   0.27150
H          H       0.05197   0.19353   0.72850
H          H       0.05197   0.80647   0.27150
H          H       0.72850   0.94803   0.80647
H          H       0.27150   0.94803   0.19353
H          H       0.72850   0.05197   0.19353
H          H       0.27150   0.05197   0.80647
H          H       0.19353   0.27150   0.05197
H          H       0.80647   0.72850   0.05197
H          H       0.80647   0.27150   0.94803
H          H       0.19353   0.72850   0.94803
H          H       0.05197   0.19353   0.27150
H          H       0.05197   0.80647   0.72850
H          H       0.94803   0.80647   0.27150
H          H       0.94803   0.19353   0.72850
H          H       0.27150   0.05197   0.19353
H          H       0.72850   0.05197   0.80647
H          H       0.27150   0.94803   0.80647
H          H       0.72850   0.94803   0.19353
H          H       0.79364   0.74031   0.96634
H          H       0.20636   0.25969   0.96634
H          H       0.20636   0.74031   0.03366
H          H       0.79364   0.25969   0.03366
H          H       0.96634   0.79364   0.74031
H          H       0.96634   0.20636   0.25969
H          H       0.03366   0.20636   0.74031
H          H       0.03366   0.79364   0.25969
H          H       0.74031   0.96634   0.79364
H          H       0.25969   0.96634   0.20636
H          H       0.74031   0.03366   0.20636
H          H       0.25969   0.03366   0.79364
H          H       0.20636   0.25969   0.03366
H          H       0.79364   0.74031   0.03366
H          H       0.79364   0.25969   0.96634
H          H       0.20636   0.74031   0.96634
H          H       0.03366   0.20636   0.25969
H          H       0.03366   0.79364   0.74031
H          H       0.96634   0.79364   0.25969
H          H       0.96634   0.20636   0.74031
H          H       0.25969   0.03366   0.20636
H          H       0.74031   0.03366   0.79364
H          H       0.25969   0.96634   0.79364
H          H       0.74031   0.96634   0.20636
H          H       0.81364   0.71927   0.92882
H          H       0.18636   0.28073   0.92882
H          H       0.18636   0.71927   0.07118
H          H       0.81364   0.28073   0.07118
H          H       0.92882   0.81364   0.71927
H          H       0.92882   0.18636   0.28073
H          H       0.07118   0.18636   0.71927
H          H       0.07118   0.81364   0.28073
H          H       0.71927   0.92882   0.81364
H          H       0.28073   0.92882   0.18636
H          H       0.71927   0.07118   0.18636
H          H       0.28073   0.07118   0.81364
H          H       0.18636   0.28073   0.07118
H          H       0.81364   0.71927   0.07118
H          H       0.81364   0.28073   0.92882
H          H       0.18636   0.71927   0.92882
H          H       0.07118   0.18636   0.28073
H          H       0.07118   0.81364   0.71927
H          H       0.92882   0.81364   0.28073
H          H       0.92882   0.18636   0.71927
H          H       0.28073   0.07118   0.18636
H          H       0.71927   0.07118   0.81364
H          H       0.28073   0.92882   0.81364
H          H       0.71927   0.92882   0.18636
H          H       0.83113   0.71530   0.91079
H          H       0.16887   0.28470   0.91079
H          H       0.16887   0.71530   0.08921
H          H       0.83113   0.28470   0.08921
H          H       0.91079   0.83113   0.71530
H          H       0.91079   0.16887   0.28470
H          H       0.08921   0.16887   0.71530
H          H       0.08921   0.83113   0.28470
H          H       0.71530   0.91079   0.83113
H          H       0.28470   0.91079   0.16887
H          H       0.71530   0.08921   0.16887
H          H       0.28470   0.08921   0.83113
H          H       0.16887   0.28470   0.08921
H          H       0.83113   0.71530   0.08921
H          H       0.83113   0.28470   0.91079
H          H       0.16887   0.71530   0.91079
H          H       0.08921   0.16887   0.28470
H          H       0.08921   0.83113   0.71530
H          H       0.91079   0.83113   0.28470
H          H       0.91079   0.16887   0.71530
H          H       0.28470   0.08921   0.16887
H          H       0.71530   0.08921   0.83113
H          H       0.28470   0.91079   0.83113
H          H       0.71530   0.91079   0.16887
H          H       0.84058   0.70189   0.89141
H          H       0.15942   0.29811   0.89141
H          H       0.15942   0.70189   0.10859
H          H       0.84058   0.29811   0.10859
H          H       0.89141   0.84058   0.70189
H          H       0.89141   0.15942   0.29811
H          H       0.10859   0.15942   0.70189
H          H       0.10859   0.84058   0.29811
H          H       0.70189   0.89141   0.84058
H          H       0.29811   0.89141   0.15942
H          H       0.70189   0.10859   0.15942
H          H       0.29811   0.10859   0.84058
H          H       0.15942   0.29811   0.10859
H          H       0.84058   0.70189   0.10859
H          H       0.84058   0.29811   0.89141
H          H       0.15942   0.70189   0.89141
H          H       0.10859   0.15942   0.29811
H          H       0.10859   0.84058   0.70189
H          H       0.89141   0.84058   0.29811
H          H       0.89141   0.15942   0.70189
H          H       0.29811   0.10859   0.15942
H          H       0.70189   0.10859   0.84058
H          H       0.29811   0.89141   0.84058
H          H       0.70189   0.89141   0.15942
H          H       0.80759   0.67190   0.89612
H          H       0.19241   0.32810   0.89612
H          H       0.19241   0.67190   0.10388
H          H       0.80759   0.32810   0.10388
H          H       0.89612   0.80759   0.67190
H          H       0.89612   0.19241   0.32810
H          H       0.10388   0.19241   0.67190
H          H       0.10388   0.80759   0.32810
H          H       0.67190   0.89612   0.80759
H          H       0.32810   0.89612   0.19241
H          H       0.67190   0.10388   0.19241
H          H       0.32810   0.10388   0.80759
H          H       0.19241   0.32810   0.10388
H          H       0.80759   0.67190   0.10388
H          H       0.80759   0.32810   0.89612
H          H       0.19241   0.67190   0.89612
H          H       0.10388   0.19241   0.32810
H          H       0.10388   0.80759   0.67190
H          H       0.89612   0.80759   0.32810
H          H       0.89612   0.19241   0.67190
H          H       0.32810   0.10388   0.19241
H          H       0.67190   0.10388   0.80759
H          H       0.32810   0.89612   0.80759
H          H       0.67190   0.89612   0.19241
H          H       0.79832   0.68516   0.91563
H          H       0.20168   0.31484   0.91563
H          H       0.20168   0.68516   0.08437
H          H       0.79832   0.31484   0.08437
H          H       0.91563   0.79832   0.68516
H          H       0.91563   0.20168   0.31484
H          H       0.08437   0.20168   0.68516
H          H       0.08437   0.79832   0.31484
H          H       0.68516   0.91563   0.79832
H          H       0.31484   0.91563   0.20168
H          H       0.68516   0.08437   0.20168
H          H       0.31484   0.08437   0.79832
H          H       0.20168   0.31484   0.08437
H          H       0.79832   0.68516   0.08437
H          H       0.79832   0.31484   0.91563
H          H       0.20168   0.68516   0.91563
H          H       0.08437   0.20168   0.31484
H          H       0.08437   0.79832   0.68516
H          H       0.91563   0.79832   0.31484
H          H       0.91563   0.20168   0.68516
H          H       0.31484   0.08437   0.20168
H          H       0.68516   0.08437   0.79832
H          H       0.31484   0.91563   0.79832
H          H       0.68516   0.91563   0.20168
H          H       0.83473   0.69610   0.86768
H          H       0.16527   0.30390   0.86768
H          H       0.16527   0.69610   0.13232
H          H       0.83473   0.30390   0.13232
H          H       0.86768   0.83473   0.69610
H          H       0.86768   0.16527   0.30390
H          H       0.13232   0.16527   0.69610
H          H       0.13232   0.83473   0.30390
H          H       0.69610   0.86768   0.83473
H          H       0.30390   0.86768   0.16527
H          H       0.69610   0.13232   0.16527
H          H       0.30390   0.13232   0.83473
H          H       0.16527   0.30390   0.13232
H          H       0.83473   0.69610   0.13232
H          H       0.83473   0.30390   0.86768
H          H       0.16527   0.69610   0.86768
H          H       0.13232   0.16527   0.30390
H          H       0.13232   0.83473   0.69610
H          H       0.86768   0.83473   0.30390
H          H       0.86768   0.16527   0.69610
H          H       0.30390   0.13232   0.16527
H          H       0.69610   0.13232   0.83473
H          H       0.30390   0.86768   0.83473
H          H       0.69610   0.86768   0.16527
H          H       0.84340   0.68303   0.84772
H          H       0.15660   0.31697   0.84772
H          H       0.15660   0.68303   0.15228
H          H       0.84340   0.31697   0.15228
H          H       0.84772   0.84340   0.68303
H          H       0.84772   0.15660   0.31697
H          H       0.15228   0.15660   0.68303
H          H       0.15228   0.84340   0.31697
H          H       0.68303   0.84772   0.84340
H          H       0.31697   0.84772   0.15660
H          H       0.68303   0.15228   0.15660
H          H       0.31697   0.15228   0.84340
H          H       0.15660   0.31697   0.15228
H          H       0.84340   0.68303   0.15228
H          H       0.84340   0.31697   0.84772
H          H       0.15660   0.68303   0.84772
H          H       0.15228   0.15660   0.31697
H          H       0.15228   0.84340   0.68303
H          H       0.84772   0.84340   0.31697
H          H       0.84772   0.15660   0.68303
H          H       0.31697   0.15228   0.15660
H          H       0.68303   0.15228   0.84340
H          H       0.31697   0.84772   0.84340
H          H       0.68303   0.84772   0.15660
H          H       0.83582   0.64465   0.86944
H          H       0.16418   0.35535   0.86944
H          H       0.16418   0.64465   0.13056
H          H       0.83582   0.35535   0.13056
H          H       0.86944   0.83582   0.64465
H          H       0.86944   0.16418   0.35535
H          H       0.13056   0.16418   0.64465
H          H       0.13056   0.83582   0.35535
H          H       0.64465   0.86944   0.83582
H          H       0.35535   0.86944   0.16418
H          H       0.64465   0.13056   0.16418
H          H       0.35535   0.13056   0.83582
H          H       0.16418   0.35535   0.13056
H          H       0.83582   0.64465   0.13056
H          H       0.83582   0.35535   0.86944
H          H       0.16418   0.64465   0.86944
H          H       0.13056   0.16418   0.35535
H          H       0.13056   0.83582   0.64465
H          H       0.86944   0.83582   0.35535
H          H       0.86944   0.16418   0.64465
H          H       0.35535   0.13056   0.16418
H          H       0.64465   0.13056   0.83582
H          H       0.35535   0.86944   0.83582
H          H       0.64465   0.86944   0.16418
H          H       0.82722   0.65767   0.88952
H          H       0.17278   0.34233   0.88952
H          H       0.17278   0.65767   0.11048
H          H       0.82722   0.34233   0.11048
H          H       0.88952   0.82722   0.65767
H          H       0.88952   0.17278   0.34233
H          H       0.11048   0.17278   0.65767
H          H       0.11048   0.82722   0.34233
H          H       0.65767   0.88952   0.82722
H          H       0.34233   0.88952   0.17278
H          H       0.65767   0.11048   0.17278
H          H       0.34233   0.11048   0.82722
H          H       0.17278   0.34233   0.11048
H          H       0.82722   0.65767   0.11048
H          H       0.82722   0.34233   0.88952
H          H       0.17278   0.65767   0.88952
H          H       0.11048   0.17278   0.34233
H          H       0.11048   0.82722   0.65767
H          H       0.88952   0.82722   0.34233
H          H       0.88952   0.17278   0.65767
H          H       0.34233   0.11048   0.17278
H          H       0.65767   0.11048   0.82722
H          H       0.34233   0.88952   0.82722
H          H       0.65767   0.88952   0.17278
H          H       0.26617   0.45063   0.74688
H          H       0.73383   0.54937   0.74688
H          H       0.73383   0.45063   0.25312
H          H       0.26617   0.54937   0.25312
H          H       0.74688   0.26617   0.45063
H          H       0.74688   0.73383   0.54937
H          H       0.25312   0.73383   0.45063
H          H       0.25312   0.26617   0.54937
H          H       0.45063   0.74688   0.26617
H          H       0.54937   0.74688   0.73383
H          H       0.45063   0.25312   0.73383
H          H       0.54937   0.25312   0.26617
H          H       0.73383   0.54937   0.25312
H          H       0.26617   0.45063   0.25312
H          H       0.26617   0.54937   0.74688
H          H       0.73383   0.45063   0.74688
H          H       0.25312   0.73383   0.54937
H          H       0.25312   0.26617   0.45063
H          H       0.74688   0.26617   0.54937
H          H       0.74688   0.73383   0.45063
H          H       0.54937   0.25312   0.73383
H          H       0.45063   0.25312   0.26617
H          H       0.54937   0.74688   0.26617
H          H       0.45063   0.74688   0.73383
H          H       0.24833   0.45058   0.76716
H          H       0.75167   0.54942   0.76716
H          H       0.75167   0.45058   0.23284
H          H       0.24833   0.54942   0.23284
H          H       0.76716   0.24833   0.45058
H          H       0.76716   0.75167   0.54942
H          H       0.23284   0.75167   0.45058
H          H       0.23284   0.24833   0.54942
H          H       0.45058   0.76716   0.24833
H          H       0.54942   0.76716   0.75167
H          H       0.45058   0.23284   0.75167
H          H       0.54942   0.23284   0.24833
H          H       0.75167   0.54942   0.23284
H          H       0.24833   0.45058   0.23284
H          H       0.24833   0.54942   0.76716
H          H       0.75167   0.45058   0.76716
H          H       0.23284   0.75167   0.54942
H          H       0.23284   0.24833   0.45058
H          H       0.76716   0.24833   0.54942
H          H       0.76716   0.75167   0.45058
H          H       0.54942   0.23284   0.75167
H          H       0.45058   0.23284   0.24833
H          H       0.54942   0.76716   0.24833
H          H       0.45058   0.76716   0.75167
H          H       0.20852   0.51350   0.78020
H          H       0.79148   0.48650   0.78020
H          H       0.79148   0.51350   0.21980
H          H       0.20852   0.48650   0.21980
H          H       0.78020   0.20852   0.51350
H          H       0.78020   0.79148   0.48650
H          H       0.21980   0.79148   0.51350
H          H       0.21980   0.20852   0.48650
H          H       0.51350   0.78020   0.20852
H          H       0.48650   0.78020   0.79148
H          H       0.51350   0.21980   0.79148
H          H       0.48650   0.21980   0.20852
H          H       0.79148   0.48650   0.21980
H          H       0.20852   0.51350   0.21980
H          H       0.20852   0.48650   0.78020
H          H       0.79148   0.51350   0.78020
H          H       0.21980   0.79148   0.48650
H          H       0.21980   0.20852   0.51350
H          H       0.78020   0.20852   0.48650
H          H       0.78020   0.79148   0.51350
H          H       0.48650   0.21980   0.79148
H          H       0.51350   0.21980   0.20852
H          H       0.48650   0.78020   0.20852
H          H       0.51350   0.78020   0.79148
H          H       0.27317   0.48645   0.70544
H          H       0.72683   0.51355   0.70544
H          H       0.72683   0.48645   0.29456
H          H       0.27317   0.51355   0.29456
H          H       0.70544   0.27317   0.48645
H          H       0.70544   0.72683   0.51355
H          H       0.29456   0.72683   0.48645
H          H       0.29456   0.27317   0.51355
H          H       0.48645   0.70544   0.27317
H          H       0.51355   0.70544   0.72683
H          H       0.48645   0.29456   0.72683
H          H       0.51355   0.29456   0.27317
H          H       0.72683   0.51355   0.29456
H          H       0.27317   0.48645   0.29456
H          H       0.27317   0.51355   0.70544
H          H       0.72683   0.48645   0.70544
H          H       0.29456   0.72683   0.51355
H          H       0.29456   0.27317   0.48645
H          H       0.70544   0.27317   0.51355
H          H       0.70544   0.72683   0.48645
H          H       0.51355   0.29456   0.72683
H          H       0.48645   0.29456   0.27317
H          H       0.51355   0.70544   0.27317
H          H       0.48645   0.70544   0.72683
H          H       0.74919   0.04944   0.23253
H          H       0.25081   0.95056   0.23253
H          H       0.25081   0.04944   0.76747
H          H       0.74919   0.95056   0.76747
H          H       0.23253   0.74919   0.04944
H          H       0.23253   0.25081   0.95056
H          H       0.76747   0.25081   0.04944
H          H       0.76747   0.74919   0.95056
H          H       0.04944   0.23253   0.74919
H          H       0.95056   0.23253   0.25081
H          H       0.04944   0.76747   0.25081
H          H       0.95056   0.76747   0.74919
H          H       0.25081   0.95056   0.76747
H          H       0.74919   0.04944   0.76747
H          H       0.74919   0.95056   0.23253
H          H       0.25081   0.04944   0.23253
H          H       0.76747   0.25081   0.95056
H          H       0.76747   0.74919   0.04944
H          H       0.23253   0.74919   0.95056
H          H       0.23253   0.25081   0.04944
H          H       0.95056   0.76747   0.25081
H          H       0.04944   0.76747   0.74919
H          H       0.95056   0.23253   0.74919
H          H       0.04944   0.23253   0.25081
H          H       0.76751   0.04943   0.25231
H          H       0.23249   0.95057   0.25231
H          H       0.23249   0.04943   0.74769
H          H       0.76751   0.95057   0.74769
H          H       0.25231   0.76751   0.04943
H          H       0.25231   0.23249   0.95057
H          H       0.74769   0.23249   0.04943
H          H       0.74769   0.76751   0.95057
H          H       0.04943   0.25231   0.76751
H          H       0.95057   0.25231   0.23249
H          H       0.04943   0.74769   0.23249
H          H       0.95057   0.74769   0.76751
H          H       0.23249   0.95057   0.74769
H          H       0.76751   0.04943   0.74769
H          H       0.76751   0.95057   0.25231
H          H       0.23249   0.04943   0.25231
H          H       0.74769   0.23249   0.95057
H          H       0.74769   0.76751   0.04943
H          H       0.25231   0.76751   0.95057
H          H       0.25231   0.23249   0.04943
H          H       0.95057   0.74769   0.23249
H          H       0.04943   0.74769   0.76751
H          H       0.95057   0.25231   0.76751
H          H       0.04943   0.25231   0.23249
H          H       0.77629   0.98650   0.29318
H          H       0.22371   0.01350   0.29318
H          H       0.22371   0.98650   0.70682
H          H       0.77629   0.01350   0.70682
H          H       0.29318   0.77629   0.98650
H          H       0.29318   0.22371   0.01350
H          H       0.70682   0.22371   0.98650
H          H       0.70682   0.77629   0.01350
H          H       0.98650   0.29318   0.77629
H          H       0.01350   0.29318   0.22371
H          H       0.98650   0.70682   0.22371
H          H       0.01350   0.70682   0.77629
H          H       0.22371   0.01350   0.70682
H          H       0.77629   0.98650   0.70682
H          H       0.77629   0.01350   0.29318
H          H       0.22371   0.98650   0.29318
H          H       0.70682   0.22371   0.01350
H          H       0.70682   0.77629   0.98650
H          H       0.29318   0.77629   0.01350
H          H       0.29318   0.22371   0.98650
H          H       0.01350   0.70682   0.22371
H          H       0.98650   0.70682   0.77629
H          H       0.01350   0.29318   0.77629
H          H       0.98650   0.29318   0.22371
H          H       0.70915   0.01350   0.22054
H          H       0.29085   0.98650   0.22054
H          H       0.29085   0.01350   0.77946
H          H       0.70915   0.98650   0.77946
H          H       0.22054   0.70915   0.01350
H          H       0.22054   0.29085   0.98650
H          H       0.77946   0.29085   0.01350
H          H       0.77946   0.70915   0.98650
H          H       0.01350   0.22054   0.70915
H          H       0.98650   0.22054   0.29085
H          H       0.01350   0.77946   0.29085
H          H       0.98650   0.77946   0.70915
H          H       0.29085   0.98650   0.77946
H          H       0.70915   0.01350   0.77946
H          H       0.70915   0.98650   0.22054
H          H       0.29085   0.01350   0.22054
H          H       0.77946   0.29085   0.98650
H          H       0.77946   0.70915   0.01350
H          H       0.22054   0.70915   0.98650
H          H       0.22054   0.29085   0.01350
H          H       0.98650   0.77946   0.29085
H          H       0.01350   0.77946   0.70915
H          H       0.98650   0.22054   0.70915
H          H       0.01350   0.22054   0.29085
N          N       0.75909   0.23162   0.50000
N          N       0.24091   0.76838   0.50000
N          N       0.24091   0.23162   0.50000
N          N       0.75909   0.76838   0.50000
N          N       0.50000   0.75909   0.23162
N          N       0.50000   0.24091   0.76838
N          N       0.50000   0.24091   0.23162
N          N       0.50000   0.75909   0.76838
N          N       0.23162   0.50000   0.75909
N          N       0.76838   0.50000   0.24091
N          N       0.23162   0.50000   0.24091
N          N       0.76838   0.50000   0.75909
N          N       0.73142   0.25578   0.50000
N          N       0.26858   0.74422   0.50000
N          N       0.26858   0.25578   0.50000
N          N       0.73142   0.74422   0.50000
N          N       0.50000   0.73142   0.25578
N          N       0.50000   0.26858   0.74422
N          N       0.50000   0.26858   0.25578
N          N       0.50000   0.73142   0.74422
N          N       0.25578   0.50000   0.73142
N          N       0.74422   0.50000   0.26858
N          N       0.25578   0.50000   0.26858
N          N       0.74422   0.50000   0.73142
N          N       0.26795   0.75777   0.00000
N          N       0.73205   0.24223   0.00000
N          N       0.73205   0.75777   0.00000
N          N       0.26795   0.24223   0.00000
N          N       0.00000   0.26795   0.75777
N          N       0.00000   0.73205   0.24223
N          N       0.00000   0.73205   0.75777
N          N       0.00000   0.26795   0.24223
N          N       0.75777   0.00000   0.26795
N          N       0.24223   0.00000   0.73205
N          N       0.75777   0.00000   0.73205
N          N       0.24223   0.00000   0.26795
N          N       0.24099   0.73284   0.00000
N          N       0.75901   0.26716   0.00000
N          N       0.75901   0.73284   0.00000
N          N       0.24099   0.26716   0.00000
N          N       0.00000   0.24099   0.73284
N          N       0.00000   0.75901   0.26716
N          N       0.00000   0.75901   0.73284
N          N       0.00000   0.24099   0.26716
N          N       0.73284   0.00000   0.24099
N          N       0.26716   0.00000   0.75901
N          N       0.73284   0.00000   0.75901
N          N       0.26716   0.00000   0.24099
N          N       0.33978   0.66022   0.33978
N          N       0.66022   0.33978   0.33978
N          N       0.66022   0.66022   0.66022
N          N       0.33978   0.33978   0.66022
N          N       0.66022   0.33978   0.66022
N          N       0.33978   0.66022   0.66022
N          N       0.33978   0.33978   0.33978
N          N       0.66022   0.66022   0.33978
Cu         Cu      0.24967   0.24950   0.00000
Cu         Cu      0.75033   0.75050   0.00000
Cu         Cu      0.75033   0.24950   0.00000
Cu         Cu      0.24967   0.75050   0.00000
Cu         Cu      0.00000   0.24967   0.24950
Cu         Cu      0.00000   0.75033   0.75050
Cu         Cu      0.00000   0.75033   0.24950
Cu         Cu      0.00000   0.24967   0.75050
Cu         Cu      0.24950   0.00000   0.24967
Cu         Cu      0.75050   0.00000   0.75033
Cu         Cu      0.24950   0.00000   0.75033
Cu         Cu      0.75050   0.00000   0.24967
Cu         Cu      0.50000   0.74988   0.75000
Cu         Cu      0.50000   0.25012   0.75000
Cu         Cu      0.50000   0.74988   0.25000
Cu         Cu      0.50000   0.25012   0.25000
Cu         Cu      0.75000   0.50000   0.74988
Cu         Cu      0.75000   0.50000   0.25012
Cu         Cu      0.25000   0.50000   0.74988
Cu         Cu      0.25000   0.50000   0.25012
Cu         Cu      0.74988   0.75000   0.50000
Cu         Cu      0.25012   0.75000   0.50000
Cu         Cu      0.74988   0.25000   0.50000
Cu         Cu      0.25012   0.25000   0.50000
