data_SB-PORPy
_audit_creation_date              0000-00-00
_audit_creation_method            'LanYouShi'
_symmetry_space_group_name_H-M    'P1'
_cell_length_a                    37.0979996
_cell_length_b                    36.8016014
_cell_length_c                    8.0679998
_cell_angle_alpha                 89.9332962
_cell_angle_beta                  90.1005020
_cell_angle_gamma                 89.9038010
loop_
_atom_site_label
_atom_site_type_symbol
_atom_site_fract_x
_atom_site_fract_y
_atom_site_fract_z
_atom_site_U_iso_or_equiv
_atom_site_adp_type
_atom_site_occupancy
        C1          C  0.2729200  0.8813300  0.9876363    0.00000       Uiso       1.00
        C2          C  0.2430100  0.9070699  0.9715264    0.00000       Uiso       1.00
        N3          N  0.2593300  0.8470799  0.0119900    0.00000       Uiso       1.00
        C4          C  0.2122200  0.8882700  0.0025800    0.00000       Uiso       1.00
        H5          H  0.2442500  0.9360100  0.9397865    0.00000       Uiso       1.00
        C6          C  0.2224700  0.8501000  0.0206699    0.00000       Uiso       1.00
        H7          H  0.1852800  0.9003499  0.0090400    0.00000       Uiso       1.00
        C8          C  0.1977200  0.8207099  0.0360199    0.00000       Uiso       1.00
        C9          C  0.2085200  0.7834399  0.0287299    0.00000       Uiso       1.00
       C10          C  0.1852800  0.7522500  0.0264399    0.00000       Uiso       1.00
       N11          N  0.2432500  0.7701200  0.0226299    0.00000       Uiso       1.00
       C12          C  0.2064800  0.7215400  0.0285999    0.00000       Uiso       1.00
       H13          H  0.1558100  0.7520199  0.0203799    0.00000       Uiso       1.00
       C14          C  0.2435100  0.7326199  0.0218799    0.00000       Uiso       1.00
       H15          H  0.1962000  0.6937400  0.0349399    0.00000       Uiso       1.00
       C16          C  0.3713700  0.7133800  0.0240399    0.00000       Uiso       1.00
       C17          C  0.3406600  0.6942400  0.9962463    0.00000       Uiso       1.00
       C18          C  0.3106500  0.7200500  0.0066500    0.00000       Uiso       1.00
       N19          N  0.3241200  0.7545100  0.0232199    0.00000       Uiso       1.00
       H20          H  0.3983000  0.7014000  0.0351599    0.00000       Uiso       1.00
       H21          H  0.3397300  0.6650400  0.9698064    0.00000       Uiso       1.00
       C22          C  0.3858100  0.7809700  0.0412798    0.00000       Uiso       1.00
       C23          C  0.3751300  0.8181600  0.0298499    0.00000       Uiso       1.00
       C24          C  0.3983200  0.8493199  0.0269199    0.00000       Uiso       1.00
       N25          N  0.3403900  0.8312900  0.0176999    0.00000       Uiso       1.00
       C26          C  0.3770400  0.8799400  0.0204399    0.00000       Uiso       1.00
       H27          H  0.4278200  0.8494999  0.0270999    0.00000       Uiso       1.00
       C28          C  0.3400500  0.8687299  0.0096500    0.00000       Uiso       1.00
       H29          H  0.3873300  0.9077699  0.0243899    0.00000       Uiso       1.00
       C30          C  0.3097400  0.8922600  0.9899964    0.00000       Uiso       1.00
       C31          C  0.2738800  0.7089999  0.0121300    0.00000       Uiso       1.00
       C32          C  0.3609900  0.7516400  0.0328399    0.00000       Uiso       1.00
       H33          H  0.2658800  0.7865499  0.0206099    0.00000       Uiso       1.00
       H34          H  0.3178700  0.8147300  0.0141799    0.00000       Uiso       1.00
       C35          C  0.1582100  0.8269899  0.0557698    0.00000       Uiso       1.00
       C36          C  0.1384200  0.8043100  0.1643694    0.00000       Uiso       1.00
       C37          C  0.1381600  0.8528700  0.9639265    0.00000       Uiso       1.00
       C38          C  0.1008600  0.8043000  0.1666294    0.00000       Uiso       1.00
       H39          H  0.1526600  0.7858800  0.2496391    0.00000       Uiso       1.00
       C40          C  0.1006600  0.8552899  0.9763064    0.00000       Uiso       1.00
       H41          H  0.1515000  0.8704299  0.8724168    0.00000       Uiso       1.00
       C42          C  0.0813600  0.8295100  0.0697897    0.00000       Uiso       1.00
       H43          H  0.0865700  0.7851399  0.2479891    0.00000       Uiso       1.00
       H44          H  0.0860000  0.8751400  0.8995166    0.00000       Uiso       1.00
       C45          C  0.4252400  0.7738000  0.0560198    0.00000       Uiso       1.00
       C46          C  0.4432000  0.7469199  0.9616364    0.00000       Uiso       1.00
       C47          C  0.4467500  0.7954199  0.1619894    0.00000       Uiso       1.00
       C48          C  0.4804500  0.7418800  0.9721564    0.00000       Uiso       1.00
       H49          H  0.4283300  0.7305599  0.8703668    0.00000       Uiso       1.00
       C50          C  0.4842400  0.7928500  0.1618394    0.00000       Uiso       1.00
       H51          H  0.4340300  0.8147300  0.2479891    0.00000       Uiso       1.00
       C52          C  0.5016200  0.7661400  0.0654798    0.00000       Uiso       1.00
       H53          H  0.4935701  0.7211699  0.8946267    0.00000       Uiso       1.00
       H54          H  0.5001200  0.8110600  0.2415691    0.00000       Uiso       1.00
       C55          C  0.3178400  0.9319000  0.9784763    0.00000       Uiso       1.00
       C56          C  0.3457700  0.9453099  0.8760368    0.00000       Uiso       1.00
       C57          C  0.2983100  0.9576100  0.0727097    0.00000       Uiso       1.00
       C58          C  0.3547900  0.9820800  0.8727268    0.00000       Uiso       1.00
       H59          H  0.3605200  0.9267399  0.7935671    0.00000       Uiso       1.00
       C60          C  0.3050800  0.9947900  0.0594198    0.00000       Uiso       1.00
       H61          H  0.2779500  0.9485399  0.1627294    0.00000       Uiso       1.00
       C62          C  0.3337800  0.0074800  0.9607465    0.00000       Uiso       1.00
       H63          H  0.3767200  0.9915699  0.7920471    0.00000       Uiso       1.00
       H64          H  0.2891200  0.0140900  0.1333395    0.00000       Uiso       1.00
       C65          C  0.2671800  0.6690700  0.0150099    0.00000       Uiso       1.00
       C66          C  0.2889100  0.6465700  0.1166996    0.00000       Uiso       1.00
       C67          C  0.2407800  0.6518300  0.9159866    0.00000       Uiso       1.00
       C68          C  0.2870300  0.6088300  0.1079796    0.00000       Uiso       1.00
       H69          H  0.3077000  0.6587900  0.2061692    0.00000       Uiso       1.00
       C70          C  0.2364800  0.6141300  0.9175666    0.00000       Uiso       1.00
       H71          H  0.2240100  0.6677999  0.8298469    0.00000       Uiso       1.00
       C72          C  0.2608500  0.5921100  0.0068600    0.00000       Uiso       1.00
       H73          H  0.3050900  0.5921600  0.1853093    0.00000       Uiso       1.00
       H74          H  0.2161100  0.6014500  0.8372269    0.00000       Uiso       1.00
       C75          C  0.5573600  0.7912900  0.0065000    0.00000       Uiso       1.00
       H76          H  0.5429600  0.8160200  0.9572965    0.00000       Uiso       1.00
       C77          C  0.2847400  0.5340800  0.9581065    0.00000       Uiso       1.00
       H78          H  0.3108100  0.5460399  0.9124066    0.00000       Uiso       1.00
       C79          C  0.2826700  0.4942300  0.9637664    0.00000       Uiso       1.00
       C80          C  0.3085400  0.4725900  0.8822467    0.00000       Uiso       1.00
       C81          C  0.2549700  0.4767399  0.0526798    0.00000       Uiso       1.00
       C82          C  0.3064000  0.4347500  0.8862267    0.00000       Uiso       1.00
       H83          H  0.3300200  0.4856200  0.8092070    0.00000       Uiso       1.00
       C84          C  0.2536500  0.4390000  0.0616698    0.00000       Uiso       1.00
       H85          H  0.2346900  0.4931700  0.1182196    0.00000       Uiso       1.00
       C86          C  0.2792400  0.4171100  0.9784964    0.00000       Uiso       1.00
       H87          H  0.3255300  0.4189200  0.8110870    0.00000       Uiso       1.00
       H88          H  0.2325900  0.4263000  0.1382595    0.00000       Uiso       1.00
       C89          C  0.2749600  0.3769800  0.9826363    0.00000       Uiso       1.00
       C90          C  0.2396000  0.3638400  0.9704464    0.00000       Uiso       1.00
       C91          C  0.3036900  0.3513900  0.9995963    0.00000       Uiso       1.00
       C92          C  0.2308800  0.3267400  0.9693164    0.00000       Uiso       1.00
       H93          H  0.2175300  0.3837700  0.9620364    0.00000       Uiso       1.00
       C94          C  0.2961100  0.3131800  0.9933163    0.00000       Uiso       1.00
       C95          C  0.3403600  0.3625700  0.0225699    0.00000       Uiso       1.00
       C96          C  0.2596100  0.3008800  0.9750964    0.00000       Uiso       1.00
       C97          C  0.1918700  0.3178400  0.9655064    0.00000       Uiso       1.00
       C98          C  0.3251400  0.2871700  0.0052400    0.00000       Uiso       1.00
       C99          C  0.3679000  0.3378800  0.0327599    0.00000       Uiso       1.00
      H100          H  0.3469400  0.3916200  0.0322399    0.00000       Uiso       1.00
      C101          C  0.2532600  0.2625200  0.9665264    0.00000       Uiso       1.00
      C102          C  0.1683400  0.3406100  0.8743168    0.00000       Uiso       1.00
      C103          C  0.1764000  0.2895200  0.0600198    0.00000       Uiso       1.00
      C104          C  0.3177500  0.2490100  0.9923863    0.00000       Uiso       1.00
      C105          C  0.3614800  0.2994300  0.0294099    0.00000       Uiso       1.00
      H106          H  0.3955500  0.3483500  0.0421998    0.00000       Uiso       1.00
      C107          C  0.2807700  0.2378900  0.9806364    0.00000       Uiso       1.00
      H108          H  0.2257700  0.2521600  0.9484965    0.00000       Uiso       1.00
      C109          C  0.1311700  0.3359400  0.8809868    0.00000       Uiso       1.00
      H110          H  0.1791300  0.3622700  0.7944471    0.00000       Uiso       1.00
      C111          C  0.1392500  0.2837700  0.0607198    0.00000       Uiso       1.00
      H112          H  0.1932800  0.2725500  0.1414995    0.00000       Uiso       1.00
      C113          C  0.3469200  0.2234900  0.9912463    0.00000       Uiso       1.00
      C114          C  0.3899000  0.2733900  0.0479198    0.00000       Uiso       1.00
      H115          H  0.2737300  0.2089000  0.9845363    0.00000       Uiso       1.00
      C116          C  0.1159400  0.3073000  0.9734464    0.00000       Uiso       1.00
      H117          H  0.1135500  0.3544200  0.8100570    0.00000       Uiso       1.00
      H118          H  0.1279400  0.2616100  0.1360195    0.00000       Uiso       1.00
      C119          C  0.3818100  0.2364700  0.0241799    0.00000       Uiso       1.00
      C120          C  0.3420700  0.1840800  0.9585065    0.00000       Uiso       1.00
      C121          C  0.4279800  0.2833300  0.0824997    0.00000       Uiso       1.00
      H122          H  0.4040200  0.2166800  0.0312399    0.00000       Uiso       1.00
      C123          C  0.3150800  0.1709700  0.8499368    0.00000       Uiso       1.00
      C124          C  0.3646600  0.1579400  0.0351399    0.00000       Uiso       1.00
      C125          C  0.4378300  0.3124000  0.1877593    0.00000       Uiso       1.00
      C126          C  0.4561800  0.2632500  0.0080700    0.00000       Uiso       1.00
      C127          C  0.3084800  0.1338900  0.8335069    0.00000       Uiso       1.00
      H128          H  0.2992600  0.1898600  0.7730471    0.00000       Uiso       1.00
      C129          C  0.3591900  0.1208100  0.0126300    0.00000       Uiso       1.00
      H130          H  0.3862600  0.1665300  0.1201096    0.00000       Uiso       1.00
      C131          C  0.4737700  0.3227300  0.2067592    0.00000       Uiso       1.00
      H132          H  0.4172900  0.3268200  0.2605990    0.00000       Uiso       1.00
      C133          C  0.4921300  0.2726400  0.0321699    0.00000       Uiso       1.00
      H134          H  0.4500500  0.2405100  0.9241766    0.00000       Uiso       1.00
      C135          C  0.3300700  0.1080400  0.9163866    0.00000       Uiso       1.00
      H136          H  0.2866100  0.1247900  0.7509272    0.00000       Uiso       1.00
      H137          H  0.3768900  0.1011900  0.0761697    0.00000       Uiso       1.00
      C138          C  0.5015900  0.3031900  0.1281195    0.00000       Uiso       1.00
      H139          H  0.4803500  0.3458400  0.2880789    0.00000       Uiso       1.00
      H140          H  0.5135500  0.2567900  0.9713564    0.00000       Uiso       1.00
      N141          N  0.2579400  0.5540600  0.0020300    0.00000       Uiso       1.00
      N142          N  0.5396200  0.7638300  0.0617098    0.00000       Uiso       1.00
      C143          C  0.8211900  0.6004900  0.8832268    0.00000       Uiso       1.00
      C144          C  0.7972600  0.6247199  0.8037071    0.00000       Uiso       1.00
      C145          C  0.8496200  0.6152800  0.9777564    0.00000       Uiso       1.00
      C146          C  0.8013100  0.6622000  0.8195670    0.00000       Uiso       1.00
      H147          H  0.7756000  0.6140300  0.7239873    0.00000       Uiso       1.00
      C148          C  0.8527200  0.6527100  0.9989263    0.00000       Uiso       1.00
      H149          H  0.8688601  0.5969600  0.0399499    0.00000       Uiso       1.00
      C150          C  0.8282400  0.6771500  0.9230666    0.00000       Uiso       1.00
      H151          H  0.7835901  0.6799700  0.7459372    0.00000       Uiso       1.00
      H152          H  0.8740501  0.6629800  0.0815097    0.00000       Uiso       1.00
      C153          C  0.8317600  0.7169099  0.9509065    0.00000       Uiso       1.00
      C154          C  0.8666500  0.7313600  0.9635364    0.00000       Uiso       1.00
      C155          C  0.8017700  0.7410800  0.9672765    0.00000       Uiso       1.00
      C156          C  0.8740301  0.7685800  0.9833464    0.00000       Uiso       1.00
      H157          H  0.8894901  0.7123200  0.9566265    0.00000       Uiso       1.00
      C158          C  0.8079400  0.7793900  0.9840564    0.00000       Uiso       1.00
      C159          C  0.7652301  0.7283099  0.9686064    0.00000       Uiso       1.00
      C160          C  0.8441600  0.7932199  0.9888864    0.00000       Uiso       1.00
      C161          C  0.9127500  0.7790300  0.9931763    0.00000       Uiso       1.00
      C162          C  0.7776700  0.8039700  0.9943764    0.00000       Uiso       1.00
      C163          C  0.7365300  0.7516900  0.9730564    0.00000       Uiso       1.00
      H164          H  0.7596101  0.6989999  0.9662164    0.00000       Uiso       1.00
      C165          C  0.8488800  0.8318100  0.0010500    0.00000       Uiso       1.00
      C166          C  0.9382201  0.7581699  0.9037367    0.00000       Uiso       1.00
      C167          C  0.9264100  0.8076299  0.0921797    0.00000       Uiso       1.00
      C168          C  0.7837200  0.8423500  0.0092600    0.00000       Uiso       1.00
      C169          C  0.7414700  0.7901599  0.9883463    0.00000       Uiso       1.00
      H170          H  0.7092100  0.7402899  0.9658664    0.00000       Uiso       1.00
      C171          C  0.8202300  0.8549799  0.0179299    0.00000       Uiso       1.00
      H172          H  0.8760101  0.8436499  0.9973164    0.00000       Uiso       1.00
      C173          C  0.9749900  0.7651100  0.9147567    0.00000       Uiso       1.00
      H174          H  0.9293300  0.7362700  0.8204669    0.00000       Uiso       1.00
      C175          C  0.9631501  0.8159100  0.0961196    0.00000       Uiso       1.00
      H176          H  0.9084601  0.8230600  0.1747093    0.00000       Uiso       1.00
      C177          C  0.7537300  0.8667400  0.0127200    0.00000       Uiso       1.00
      C178          C  0.7117000  0.8146800  0.9984064    0.00000       Uiso       1.00
      H179          H  0.8258101  0.8839800  0.0376199    0.00000       Uiso       1.00
      C180          C  0.9883000  0.7944900  0.0088100    0.00000       Uiso       1.00
      H181          H  0.9938900  0.7479500  0.8442569    0.00000       Uiso       1.00
      H182          H  0.9726101  0.8384700  0.1742794    0.00000       Uiso       1.00
      C183          C  0.7188600  0.8520399  0.0094500    0.00000       Uiso       1.00
      C184          C  0.7564600  0.9069900  0.0160299    0.00000       Uiso       1.00
      C185          C  0.6728700  0.8045999  0.9939063    0.00000       Uiso       1.00
      H186          H  0.6958200  0.8708700  0.0147499    0.00000       Uiso       1.00
      C187          C  0.7823200  0.9264699  0.9230766    0.00000       Uiso       1.00
      C188          C  0.7308700  0.9272799  0.1070796    0.00000       Uiso       1.00
      C189          C  0.6574900  0.7756799  0.0848297    0.00000       Uiso       1.00
      C190          C  0.6492600  0.8273399  0.9029867    0.00000       Uiso       1.00
      C191          C  0.7836800  0.9642900  0.9282066    0.00000       Uiso       1.00
      H192          H  0.8009700  0.9121299  0.8396669    0.00000       Uiso       1.00
      C193          C  0.7312000  0.9651399  0.1063096    0.00000       Uiso       1.00
      H194          H  0.7106100  0.9133199  0.1837193    0.00000       Uiso       1.00
      C195          C  0.6202900  0.7697999  0.0850797    0.00000       Uiso       1.00
      H196          H  0.6745000  0.7582899  0.1639794    0.00000       Uiso       1.00
      C197          C  0.6121401  0.8223799  0.9084067    0.00000       Uiso       1.00
      H198          H  0.6600301  0.8493199  0.8248670    0.00000       Uiso       1.00
      C199          C  0.7581000  0.9843200  0.0195999    0.00000       Uiso       1.00
      H200          H  0.8042800  0.9788399  0.8560368    0.00000       Uiso       1.00
      H201          H  0.7108900  0.9800799  0.1789093    0.00000       Uiso       1.00
      C202          C  0.5968500  0.7935700  0.9997163    0.00000       Uiso       1.00
      H203          H  0.6091200  0.7473100  0.1587494    0.00000       Uiso       1.00
      H204          H  0.5945000  0.8409700  0.8380969    0.00000       Uiso       1.00
      C205          C  0.5397300  0.3137500  0.1434895    0.00000       Uiso       1.00
      H206          H  0.5459400  0.3403900  0.2056292    0.00000       Uiso       1.00
      C207          C  0.0275400  0.7997800  0.0155299    0.00000       Uiso       1.00
      H208          H  0.0436900  0.7759899  0.9684664    0.00000       Uiso       1.00
      N209          N  0.0432900  0.8288300  0.0666498    0.00000       Uiso       1.00
      N210          N  0.5642500  0.2925200  0.0872397    0.00000       Uiso       1.00
      C211          C  0.7856700  0.3689300  0.9442865    0.00000       Uiso       1.00
      C212          C  0.7534000  0.3913600  0.9237266    0.00000       Uiso       1.00
      N213          N  0.7755700  0.3336900  0.9745364    0.00000       Uiso       1.00
      C214          C  0.7246500  0.3698300  0.9589464    0.00000       Uiso       1.00
      H215          H  0.7518200  0.4199700  0.8863167    0.00000       Uiso       1.00
      C216          C  0.7386500  0.3330700  0.9844964    0.00000       Uiso       1.00
      H217          H  0.6966700  0.3792100  0.9619564    0.00000       Uiso       1.00
      C218          C  0.7170900  0.3014700  0.0083000    0.00000       Uiso       1.00
      C219          C  0.7312000  0.2653400  0.0001600    0.00000       Uiso       1.00
      C220          C  0.7105700  0.2323200  0.9993362    0.00000       Uiso       1.00
      N221          N  0.7668400  0.2549500  0.9891064    0.00000       Uiso       1.00
      C222          C  0.7341800  0.2034800  0.9967864    0.00000       Uiso       1.00
      H223          H  0.6812100  0.2295800  0.9970164    0.00000       Uiso       1.00
      C224          C  0.7701200  0.2176100  0.9864163    0.00000       Uiso       1.00
      H225          H  0.7261800  0.1749200  0.0032600    0.00000       Uiso       1.00
      C226          C  0.8986501  0.2106800  0.0030900    0.00000       Uiso       1.00
      C227          C  0.8703400  0.1883500  0.9709664    0.00000       Uiso       1.00
      C228          C  0.8378500  0.2109600  0.9740464    0.00000       Uiso       1.00
      N229          N  0.8475400  0.2467100  0.9908664    0.00000       Uiso       1.00
      H230          H  0.9265200  0.2016300  0.0213399    0.00000       Uiso       1.00
      H231          H  0.8724400  0.1591000  0.9473565    0.00000       Uiso       1.00
      C232          C  0.9060900  0.2794900  0.0144799    0.00000       Uiso       1.00
      C233          C  0.8923200  0.3155600  0.9988564    0.00000       Uiso       1.00
      C234          C  0.9128900  0.3485400  0.9941264    0.00000       Uiso       1.00
      N235          N  0.8567001  0.3257000  0.9826464    0.00000       Uiso       1.00
      C236          C  0.8892400  0.3772600  0.9819364    0.00000       Uiso       1.00
      H237          H  0.9422600  0.3512100  0.9970763    0.00000       Uiso       1.00
      C238          C  0.8533800  0.3629400  0.9701764    0.00000       Uiso       1.00
      H239          H  0.8971700  0.4058800  0.9824263    0.00000       Uiso       1.00
      C240          C  0.8211800  0.3835200  0.9467865    0.00000       Uiso       1.00
      C241          C  0.8022900  0.1965600  0.9744564    0.00000       Uiso       1.00
      C242          C  0.8843600  0.2477400  0.0065000    0.00000       Uiso       1.00
      H243          H  0.7881700  0.2730300  0.9853663    0.00000       Uiso       1.00
      H244          H  0.8354800  0.3074900  0.9793964    0.00000       Uiso       1.00
      C245          C  0.6775400  0.3037700  0.0394399    0.00000       Uiso       1.00
      C246          C  0.6618800  0.2792000  0.1538894    0.00000       Uiso       1.00
      C247          C  0.6536101  0.3272700  0.9544765    0.00000       Uiso       1.00
      C248          C  0.6247400  0.2755000  0.1704994    0.00000       Uiso       1.00
      H249          H  0.6793100  0.2621000  0.2320291    0.00000       Uiso       1.00
      C250          C  0.6164100  0.3260500  0.9808964    0.00000       Uiso       1.00
      H251          H  0.6634001  0.3457700  0.8575668    0.00000       Uiso       1.00
      C252          C  0.6013500  0.2991800  0.0843597    0.00000       Uiso       1.00
      H253          H  0.6136800  0.2553100  0.2571290    0.00000       Uiso       1.00
      H254          H  0.5986200  0.3443700  0.9102467    0.00000       Uiso       1.00
      C255          C  0.9459500  0.2760000  0.0301399    0.00000       Uiso       1.00
      C256          C  0.9660200  0.2507700  0.9354565    0.00000       Uiso       1.00
      C257          C  0.9654701  0.2995600  0.1355595    0.00000       Uiso       1.00
      C258          C  0.0035300  0.2489600  0.9459165    0.00000       Uiso       1.00
      H259          H  0.9525000  0.2331900  0.8444669    0.00000       Uiso       1.00
      C260          C  0.0030400  0.3002300  0.1353495    0.00000       Uiso       1.00
      H261          H  0.9511400  0.3178100  0.2209892    0.00000       Uiso       1.00
      C262          C  0.0224900  0.2749800  0.0392799    0.00000       Uiso       1.00
      H263          H  0.0184200  0.2294800  0.8685368    0.00000       Uiso       1.00
      H264          H  0.0174000  0.3197700  0.2146392    0.00000       Uiso       1.00
      C265          C  0.8253800  0.4237400  0.9343666    0.00000       Uiso       1.00
      C266          C  0.8520800  0.4398600  0.8332669    0.00000       Uiso       1.00
      C267          C  0.8032001  0.4473500  0.0277399    0.00000       Uiso       1.00
      C268          C  0.8574901  0.4773600  0.8307069    0.00000       Uiso       1.00
      H269          H  0.8687500  0.4228600  0.7515172    0.00000       Uiso       1.00
      C270          C  0.8064500  0.4850200  0.0156699    0.00000       Uiso       1.00
      H271          H  0.7835300  0.4362200  0.1161996    0.00000       Uiso       1.00
      C272          C  0.8340300  0.5005200  0.9185566    0.00000       Uiso       1.00
      H273          H  0.8785700  0.4890299  0.7511472    0.00000       Uiso       1.00
      H274          H  0.7886600  0.5026200  0.0896097    0.00000       Uiso       1.00
      C275          C  0.7979800  0.1563000  0.9731664    0.00000       Uiso       1.00
      C276          C  0.8199300  0.1339200  0.0744297    0.00000       Uiso       1.00
      C277          C  0.7717900  0.1389500  0.8734568    0.00000       Uiso       1.00
      C278          C  0.8172300  0.0961700  0.0702597    0.00000       Uiso       1.00
      H279          H  0.8390400  0.1461600  0.1624894    0.00000       Uiso       1.00
      C280          C  0.7666500  0.1014100  0.8796967    0.00000       Uiso       1.00
      H281          H  0.7554600  0.1547800  0.7850771    0.00000       Uiso       1.00
      C282          C  0.7897301  0.0795300  0.9767464    0.00000       Uiso       1.00
      H283          H  0.8347700  0.0794600  0.1497694    0.00000       Uiso       1.00
      H284          H  0.7458300  0.0887200  0.8016470    0.00000       Uiso       1.00
      C285          C  0.0765800  0.3038700  0.9797664    0.00000       Uiso       1.00
      H286          H  0.0610300  0.3277900  0.9297366    0.00000       Uiso       1.00
      C287          C  0.7594100  0.0242300  0.0250499    0.00000       Uiso       1.00
      H288          H  0.7353600  0.0385600  0.0793797    0.00000       Uiso       1.00
      C289          C  0.3214700  0.0691300  0.9050366    0.00000       Uiso       1.00
      H290          H  0.2947400  0.0622000  0.8471369    0.00000       Uiso       1.00
      N291          N  0.7873800  0.0414600  0.9744264    0.00000       Uiso       1.00
      N292          N  0.3430500  0.0445100  0.9594564    0.00000       Uiso       1.00
      N293          N  0.0604700  0.2755000  0.0357699    0.00000       Uiso       1.00
      N294          N  0.8398900  0.5382500  0.9190466    0.00000       Uiso       1.00
      C295          C  0.8158500  0.5610099  0.8697868    0.00000       Uiso       1.00
      H296          H  0.7895200  0.5519100  0.8142869    0.00000       Uiso       1.00
      C297          C  0.2729200  0.8813300  0.4876382    0.00000       Uiso       1.00
      C298          C  0.2430100  0.9070700  0.4715283    0.00000       Uiso       1.00
      N299          N  0.2593300  0.8470800  0.5119881    0.00000       Uiso       1.00
      C300          C  0.2122200  0.8882700  0.5025781    0.00000       Uiso       1.00
      H301          H  0.2442500  0.9360100  0.4397884    0.00000       Uiso       1.00
      C302          C  0.2224700  0.8500999  0.5206681    0.00000       Uiso       1.00
      H303          H  0.1852800  0.9003500  0.5090381    0.00000       Uiso       1.00
      C304          C  0.1977200  0.8207100  0.5360180    0.00000       Uiso       1.00
      C305          C  0.2085200  0.7834399  0.5287281    0.00000       Uiso       1.00
      C306          C  0.1852800  0.7522500  0.5264381    0.00000       Uiso       1.00
      N307          N  0.2432500  0.7701200  0.5226281    0.00000       Uiso       1.00
      C308          C  0.2064800  0.7215399  0.5285981    0.00000       Uiso       1.00
      H309          H  0.1558100  0.7520200  0.5203781    0.00000       Uiso       1.00
      C310          C  0.2435100  0.7326200  0.5218781    0.00000       Uiso       1.00
      H311          H  0.1962000  0.6937400  0.5349380    0.00000       Uiso       1.00
      C312          C  0.3713700  0.7133800  0.5240381    0.00000       Uiso       1.00
      C313          C  0.3406600  0.6942400  0.4962482    0.00000       Uiso       1.00
      C314          C  0.3106500  0.7200500  0.5066481    0.00000       Uiso       1.00
      N315          N  0.3241200  0.7545099  0.5232181    0.00000       Uiso       1.00
      H316          H  0.3983000  0.7013999  0.5351580    0.00000       Uiso       1.00
      H317          H  0.3397300  0.6650400  0.4698083    0.00000       Uiso       1.00
      C318          C  0.3858100  0.7809700  0.5412780    0.00000       Uiso       1.00
      C319          C  0.3751300  0.8181599  0.5298480    0.00000       Uiso       1.00
      C320          C  0.3983200  0.8493199  0.5269181    0.00000       Uiso       1.00
      N321          N  0.3403900  0.8312899  0.5176981    0.00000       Uiso       1.00
      C322          C  0.3770400  0.8799399  0.5204381    0.00000       Uiso       1.00
      H323          H  0.4278200  0.8494999  0.5270980    0.00000       Uiso       1.00
      C324          C  0.3400500  0.8687300  0.5096481    0.00000       Uiso       1.00
      H325          H  0.3873300  0.9077699  0.5243881    0.00000       Uiso       1.00
      C326          C  0.3097400  0.8922600  0.4899982    0.00000       Uiso       1.00
      C327          C  0.2738800  0.7090000  0.5121281    0.00000       Uiso       1.00
      C328          C  0.3609900  0.7516400  0.5328380    0.00000       Uiso       1.00
      H329          H  0.2658800  0.7865500  0.5206081    0.00000       Uiso       1.00
      H330          H  0.3178700  0.8147300  0.5141781    0.00000       Uiso       1.00
      C331          C  0.1582100  0.8269899  0.5557680    0.00000       Uiso       1.00
      C332          C  0.1384200  0.8043100  0.6643676    0.00000       Uiso       1.00
      C333          C  0.1381600  0.8528699  0.4639283    0.00000       Uiso       1.00
      C334          C  0.1008600  0.8043000  0.6666275    0.00000       Uiso       1.00
      H335          H  0.1526600  0.7858800  0.7496372    0.00000       Uiso       1.00
      C336          C  0.1006600  0.8552899  0.4763082    0.00000       Uiso       1.00
      H337          H  0.1515000  0.8704300  0.3724186    0.00000       Uiso       1.00
      C338          C  0.0813600  0.8295100  0.5697879    0.00000       Uiso       1.00
      H339          H  0.0865700  0.7851400  0.7479873    0.00000       Uiso       1.00
      H340          H  0.0860000  0.8751400  0.3995185    0.00000       Uiso       1.00
      C341          C  0.4252400  0.7738000  0.5560179    0.00000       Uiso       1.00
      C342          C  0.4432000  0.7469199  0.4616383    0.00000       Uiso       1.00
      C343          C  0.4467500  0.7954200  0.6619875    0.00000       Uiso       1.00
      C344          C  0.4804500  0.7418799  0.4721583    0.00000       Uiso       1.00
      H345          H  0.4283300  0.7305600  0.3703686    0.00000       Uiso       1.00
      C346          C  0.4842400  0.7928500  0.6618376    0.00000       Uiso       1.00
      H347          H  0.4340300  0.8147299  0.7479873    0.00000       Uiso       1.00
      C348          C  0.5016200  0.7661400  0.5654779    0.00000       Uiso       1.00
      H349          H  0.4935700  0.7211699  0.3946286    0.00000       Uiso       1.00
      H350          H  0.5001200  0.8110600  0.7415673    0.00000       Uiso       1.00
      C351          C  0.3178400  0.9319000  0.4784782    0.00000       Uiso       1.00
      C352          C  0.3457700  0.9453099  0.3760386    0.00000       Uiso       1.00
      C353          C  0.2983100  0.9576099  0.5727079    0.00000       Uiso       1.00
      C354          C  0.3547900  0.9820799  0.3727286    0.00000       Uiso       1.00
      H355          H  0.3605200  0.9267399  0.2935689    0.00000       Uiso       1.00
      C356          C  0.3050800  0.9947899  0.5594180    0.00000       Uiso       1.00
      H357          H  0.2779500  0.9485400  0.6627275    0.00000       Uiso       1.00
      C358          C  0.3337800  0.0074800  0.4607483    0.00000       Uiso       1.00
      H359          H  0.3767200  0.9915699  0.2920489    0.00000       Uiso       1.00
      H360          H  0.2891200  0.0140900  0.6333377    0.00000       Uiso       1.00
      C361          C  0.2671800  0.6690699  0.5150081    0.00000       Uiso       1.00
      C362          C  0.2889100  0.6465700  0.6166977    0.00000       Uiso       1.00
      C363          C  0.2407800  0.6518300  0.4159884    0.00000       Uiso       1.00
      C364          C  0.2870300  0.6088300  0.6079778    0.00000       Uiso       1.00
      H365          H  0.3077000  0.6587899  0.7061674    0.00000       Uiso       1.00
      C366          C  0.2364800  0.6141300  0.4175685    0.00000       Uiso       1.00
      H367          H  0.2240100  0.6677999  0.3298488    0.00000       Uiso       1.00
      C368          C  0.2608500  0.5921100  0.5068581    0.00000       Uiso       1.00
      H369          H  0.3050900  0.5921599  0.6853075    0.00000       Uiso       1.00
      H370          H  0.2161100  0.6014500  0.3372288    0.00000       Uiso       1.00
      C371          C  0.5573601  0.7912899  0.5064981    0.00000       Uiso       1.00
      H372          H  0.5429600  0.8160200  0.4572983    0.00000       Uiso       1.00
      C373          C  0.2847400  0.5340800  0.4581083    0.00000       Uiso       1.00
      H374          H  0.3108100  0.5460400  0.4124085    0.00000       Uiso       1.00
      C375          C  0.2826700  0.4942300  0.4637683    0.00000       Uiso       1.00
      C376          C  0.3085400  0.4725900  0.3822486    0.00000       Uiso       1.00
      C377          C  0.2549700  0.4767400  0.5526780    0.00000       Uiso       1.00
      C378          C  0.3064000  0.4347500  0.3862286    0.00000       Uiso       1.00
      H379          H  0.3300200  0.4856200  0.3092088    0.00000       Uiso       1.00
      C380          C  0.2536500  0.4390000  0.5616679    0.00000       Uiso       1.00
      H381          H  0.2346900  0.4931700  0.6182177    0.00000       Uiso       1.00
      C382          C  0.2792400  0.4171100  0.4784983    0.00000       Uiso       1.00
      H383          H  0.3255300  0.4189200  0.3110889    0.00000       Uiso       1.00
      H384          H  0.2325900  0.4263000  0.6382577    0.00000       Uiso       1.00
      C385          C  0.2749600  0.3769800  0.4826382    0.00000       Uiso       1.00
      C386          C  0.2396000  0.3638400  0.4704483    0.00000       Uiso       1.00
      C387          C  0.3036900  0.3513900  0.4995981    0.00000       Uiso       1.00
      C388          C  0.2308800  0.3267400  0.4693183    0.00000       Uiso       1.00
      H389          H  0.2175300  0.3837700  0.4620383    0.00000       Uiso       1.00
      C390          C  0.2961100  0.3131800  0.4933182    0.00000       Uiso       1.00
      C391          C  0.3403600  0.3625700  0.5225680    0.00000       Uiso       1.00
      C392          C  0.2596100  0.3008800  0.4750983    0.00000       Uiso       1.00
      C393          C  0.1918700  0.3178400  0.4655083    0.00000       Uiso       1.00
      C394          C  0.3251400  0.2871700  0.5052381    0.00000       Uiso       1.00
      C395          C  0.3679000  0.3378800  0.5327581    0.00000       Uiso       1.00
      H396          H  0.3469400  0.3916200  0.5322381    0.00000       Uiso       1.00
      C397          C  0.2532600  0.2625200  0.4665283    0.00000       Uiso       1.00
      C398          C  0.1683400  0.3406100  0.3743186    0.00000       Uiso       1.00
      C399          C  0.1764000  0.2895200  0.5600179    0.00000       Uiso       1.00
      C400          C  0.3177500  0.2490100  0.4923882    0.00000       Uiso       1.00
      C401          C  0.3614800  0.2994300  0.5294080    0.00000       Uiso       1.00
      H402          H  0.3955500  0.3483500  0.5421980    0.00000       Uiso       1.00
      C403          C  0.2807700  0.2378900  0.4806382    0.00000       Uiso       1.00
      H404          H  0.2257700  0.2521600  0.4484984    0.00000       Uiso       1.00
      C405          C  0.1311700  0.3359400  0.3809886    0.00000       Uiso       1.00
      H406          H  0.1791300  0.3622700  0.2944489    0.00000       Uiso       1.00
      C407          C  0.1392500  0.2837700  0.5607179    0.00000       Uiso       1.00
      H408          H  0.1932800  0.2725500  0.6414977    0.00000       Uiso       1.00
      C409          C  0.3469200  0.2234900  0.4912482    0.00000       Uiso       1.00
      C410          C  0.3899000  0.2733900  0.5479180    0.00000       Uiso       1.00
      H411          H  0.2737300  0.2089000  0.4845382    0.00000       Uiso       1.00
      C412          C  0.1159400  0.3073000  0.4734482    0.00000       Uiso       1.00
      H413          H  0.1135500  0.3544200  0.3100589    0.00000       Uiso       1.00
      H414          H  0.1279400  0.2616100  0.6360177    0.00000       Uiso       1.00
      C415          C  0.3818100  0.2364700  0.5241781    0.00000       Uiso       1.00
      C416          C  0.3420700  0.1840800  0.4585083    0.00000       Uiso       1.00
      C417          C  0.4279800  0.2833300  0.5824978    0.00000       Uiso       1.00
      H418          H  0.4040200  0.2166800  0.5312380    0.00000       Uiso       1.00
      C419          C  0.3150800  0.1709700  0.3499387    0.00000       Uiso       1.00
      C420          C  0.3646600  0.1579400  0.5351380    0.00000       Uiso       1.00
      C421          C  0.4378300  0.3124000  0.6877574    0.00000       Uiso       1.00
      C422          C  0.4561800  0.2632500  0.5080681    0.00000       Uiso       1.00
      C423          C  0.3084800  0.1338900  0.3335088    0.00000       Uiso       1.00
      H424          H  0.2992600  0.1898600  0.2730490    0.00000       Uiso       1.00
      C425          C  0.3591900  0.1208100  0.5126281    0.00000       Uiso       1.00
      H426          H  0.3862600  0.1665300  0.6201077    0.00000       Uiso       1.00
      C427          C  0.4737700  0.3227300  0.7067574    0.00000       Uiso       1.00
      H428          H  0.4172900  0.3268200  0.7605972    0.00000       Uiso       1.00
      C429          C  0.4921300  0.2726400  0.5321680    0.00000       Uiso       1.00
      H430          H  0.4500500  0.2405100  0.4241784    0.00000       Uiso       1.00
      C431          C  0.3300700  0.1080400  0.4163885    0.00000       Uiso       1.00
      H432          H  0.2866100  0.1247900  0.2509291    0.00000       Uiso       1.00
      H433          H  0.3768900  0.1011900  0.5761679    0.00000       Uiso       1.00
      C434          C  0.5015900  0.3031900  0.6281177    0.00000       Uiso       1.00
      H435          H  0.4803500  0.3458400  0.7880771    0.00000       Uiso       1.00
      H436          H  0.5135500  0.2567900  0.4713582    0.00000       Uiso       1.00
      N437          N  0.2579400  0.5540600  0.5020282    0.00000       Uiso       1.00
      N438          N  0.5396200  0.7638299  0.5617079    0.00000       Uiso       1.00
      C439          C  0.8211900  0.6004900  0.3832286    0.00000       Uiso       1.00
      C440          C  0.7972600  0.6247200  0.3037089    0.00000       Uiso       1.00
      C441          C  0.8496200  0.6152800  0.4777582    0.00000       Uiso       1.00
      C442          C  0.8013100  0.6622000  0.3195688    0.00000       Uiso       1.00
      H443          H  0.7756000  0.6140299  0.2239892    0.00000       Uiso       1.00
      C444          C  0.8527200  0.6527100  0.4989282    0.00000       Uiso       1.00
      H445          H  0.8688601  0.5969599  0.5399480    0.00000       Uiso       1.00
      C446          C  0.8282400  0.6771500  0.4230684    0.00000       Uiso       1.00
      H447          H  0.7835900  0.6799700  0.2459391    0.00000       Uiso       1.00
      H448          H  0.8740501  0.6629800  0.5815078    0.00000       Uiso       1.00
      C449          C  0.8317600  0.7169099  0.4509083    0.00000       Uiso       1.00
      C450          C  0.8666500  0.7313600  0.4635383    0.00000       Uiso       1.00
      C451          C  0.8017700  0.7410799  0.4672783    0.00000       Uiso       1.00
      C452          C  0.8740301  0.7685800  0.4833482    0.00000       Uiso       1.00
      H453          H  0.8894899  0.7123200  0.4566283    0.00000       Uiso       1.00
      C454          C  0.8079401  0.7793900  0.4840582    0.00000       Uiso       1.00
      C455          C  0.7652301  0.7283100  0.4686083    0.00000       Uiso       1.00
      C456          C  0.8441600  0.7932200  0.4888882    0.00000       Uiso       1.00
      C457          C  0.9127500  0.7790300  0.4931782    0.00000       Uiso       1.00
      C458          C  0.7776700  0.8039699  0.4943782    0.00000       Uiso       1.00
      C459          C  0.7365300  0.7516900  0.4730583    0.00000       Uiso       1.00
      H460          H  0.7596101  0.6989999  0.4662183    0.00000       Uiso       1.00
      C461          C  0.8488800  0.8318099  0.5010481    0.00000       Uiso       1.00
      C462          C  0.9382200  0.7581700  0.4037385    0.00000       Uiso       1.00
      C463          C  0.9264100  0.8076299  0.5921778    0.00000       Uiso       1.00
      C464          C  0.7837201  0.8423499  0.5092582    0.00000       Uiso       1.00
      C465          C  0.7414700  0.7901599  0.4883482    0.00000       Uiso       1.00
      H466          H  0.7092100  0.7402900  0.4658683    0.00000       Uiso       1.00
      C467          C  0.8202300  0.8549800  0.5179281    0.00000       Uiso       1.00
      H468          H  0.8760101  0.8436500  0.4973181    0.00000       Uiso       1.00
      C469          C  0.9749900  0.7651100  0.4147585    0.00000       Uiso       1.00
      H470          H  0.9293300  0.7362700  0.3204688    0.00000       Uiso       1.00
      C471          C  0.9631501  0.8159100  0.5961178    0.00000       Uiso       1.00
      H472          H  0.9084601  0.8230600  0.6747075    0.00000       Uiso       1.00
      C473          C  0.7537300  0.8667399  0.5127181    0.00000       Uiso       1.00
      C474          C  0.7117000  0.8146799  0.4984082    0.00000       Uiso       1.00
      H475          H  0.8258100  0.8839800  0.5376180    0.00000       Uiso       1.00
      C476          C  0.9883000  0.7944900  0.5088081    0.00000       Uiso       1.00
      H477          H  0.9938900  0.7479500  0.3442587    0.00000       Uiso       1.00
      H478          H  0.9726101  0.8384699  0.6742775    0.00000       Uiso       1.00
      C479          C  0.7188600  0.8520400  0.5094481    0.00000       Uiso       1.00
      C480          C  0.7564600  0.9069900  0.5160281    0.00000       Uiso       1.00
      C481          C  0.6728700  0.8046000  0.4939082    0.00000       Uiso       1.00
      H482          H  0.6958200  0.8708699  0.5147481    0.00000       Uiso       1.00
      C483          C  0.7823200  0.9264700  0.4230784    0.00000       Uiso       1.00
      C484          C  0.7308701  0.9272799  0.6070778    0.00000       Uiso       1.00
      C485          C  0.6574900  0.7756799  0.5848278    0.00000       Uiso       1.00
      C486          C  0.6492600  0.8273399  0.4029885    0.00000       Uiso       1.00
      C487          C  0.7836800  0.9642900  0.4282084    0.00000       Uiso       1.00
      H488          H  0.8009701  0.9121300  0.3396688    0.00000       Uiso       1.00
      C489          C  0.7312000  0.9651400  0.6063078    0.00000       Uiso       1.00
      H490          H  0.7106100  0.9133199  0.6837174    0.00000       Uiso       1.00
      C491          C  0.6202900  0.7697999  0.5850778    0.00000       Uiso       1.00
      H492          H  0.6745000  0.7582900  0.6639776    0.00000       Uiso       1.00
      C493          C  0.6121401  0.8223800  0.4084085    0.00000       Uiso       1.00
      H494          H  0.6600300  0.8493199  0.3248688    0.00000       Uiso       1.00
      C495          C  0.7581000  0.9843200  0.5195981    0.00000       Uiso       1.00
      H496          H  0.8042800  0.9788400  0.3560387    0.00000       Uiso       1.00
      H497          H  0.7108901  0.9800799  0.6789075    0.00000       Uiso       1.00
      C498          C  0.5968500  0.7935700  0.4997181    0.00000       Uiso       1.00
      H499          H  0.6091200  0.7473100  0.6587476    0.00000       Uiso       1.00
      H500          H  0.5945000  0.8409699  0.3380988    0.00000       Uiso       1.00
      C501          C  0.5397300  0.3137500  0.6434876    0.00000       Uiso       1.00
      H502          H  0.5459400  0.3403900  0.7056274    0.00000       Uiso       1.00
      C503          C  0.0275400  0.7997800  0.5155281    0.00000       Uiso       1.00
      H504          H  0.0436900  0.7759899  0.4684682    0.00000       Uiso       1.00
      N505          N  0.0432900  0.8288299  0.5666479    0.00000       Uiso       1.00
      N506          N  0.5642500  0.2925200  0.5872378    0.00000       Uiso       1.00
      C507          C  0.7856700  0.3689300  0.4442883    0.00000       Uiso       1.00
      C508          C  0.7534000  0.3913600  0.4237284    0.00000       Uiso       1.00
      N509          N  0.7755700  0.3336900  0.4745383    0.00000       Uiso       1.00
      C510          C  0.7246500  0.3698300  0.4589483    0.00000       Uiso       1.00
      H511          H  0.7518200  0.4199700  0.3863186    0.00000       Uiso       1.00
      C512          C  0.7386500  0.3330700  0.4844982    0.00000       Uiso       1.00
      H513          H  0.6966700  0.3792100  0.4619583    0.00000       Uiso       1.00
      C514          C  0.7170900  0.3014700  0.5082982    0.00000       Uiso       1.00
      C515          C  0.7312000  0.2653400  0.5001581    0.00000       Uiso       1.00
      C516          C  0.7105700  0.2323200  0.4993382    0.00000       Uiso       1.00
      N517          N  0.7668400  0.2549500  0.4891082    0.00000       Uiso       1.00
      C518          C  0.7341800  0.2034800  0.4967882    0.00000       Uiso       1.00
      H519          H  0.6812100  0.2295800  0.4970182    0.00000       Uiso       1.00
      C520          C  0.7701200  0.2176100  0.4864182    0.00000       Uiso       1.00
      H521          H  0.7261800  0.1749200  0.5032581    0.00000       Uiso       1.00
      C522          C  0.8986501  0.2106800  0.5030882    0.00000       Uiso       1.00
      C523          C  0.8703400  0.1883500  0.4709683    0.00000       Uiso       1.00
      C524          C  0.8378500  0.2109600  0.4740482    0.00000       Uiso       1.00
      N525          N  0.8475400  0.2467100  0.4908682    0.00000       Uiso       1.00
      H526          H  0.9265200  0.2016300  0.5213381    0.00000       Uiso       1.00
      H527          H  0.8724400  0.1591000  0.4473584    0.00000       Uiso       1.00
      C528          C  0.9060900  0.2794900  0.5144781    0.00000       Uiso       1.00
      C529          C  0.8923200  0.3155600  0.4988581    0.00000       Uiso       1.00
      C530          C  0.9128900  0.3485400  0.4941282    0.00000       Uiso       1.00
      N531          N  0.8567000  0.3257000  0.4826482    0.00000       Uiso       1.00
      C532          C  0.8892400  0.3772600  0.4819382    0.00000       Uiso       1.00
      H533          H  0.9422600  0.3512100  0.4970782    0.00000       Uiso       1.00
      C534          C  0.8533800  0.3629400  0.4701783    0.00000       Uiso       1.00
      H535          H  0.8971700  0.4058800  0.4824282    0.00000       Uiso       1.00
      C536          C  0.8211800  0.3835200  0.4467883    0.00000       Uiso       1.00
      C537          C  0.8022900  0.1965600  0.4744582    0.00000       Uiso       1.00
      C538          C  0.8843600  0.2477400  0.5064981    0.00000       Uiso       1.00
      H539          H  0.7881700  0.2730300  0.4853682    0.00000       Uiso       1.00
      H540          H  0.8354800  0.3074900  0.4793982    0.00000       Uiso       1.00
      C541          C  0.6775400  0.3037700  0.5394380    0.00000       Uiso       1.00
      C542          C  0.6618800  0.2792000  0.6538876    0.00000       Uiso       1.00
      C543          C  0.6536100  0.3272700  0.4544783    0.00000       Uiso       1.00
      C544          C  0.6247400  0.2755000  0.6704975    0.00000       Uiso       1.00
      H545          H  0.6793100  0.2621000  0.7320273    0.00000       Uiso       1.00
      C546          C  0.6164100  0.3260500  0.4808982    0.00000       Uiso       1.00
      H547          H  0.6634001  0.3457700  0.3575687    0.00000       Uiso       1.00
      C548          C  0.6013500  0.2991800  0.5843579    0.00000       Uiso       1.00
      H549          H  0.6136801  0.2553100  0.7571272    0.00000       Uiso       1.00
      H550          H  0.5986200  0.3443700  0.4102485    0.00000       Uiso       1.00
      C551          C  0.9459500  0.2760000  0.5301380    0.00000       Uiso       1.00
      C552          C  0.9660200  0.2507700  0.4354584    0.00000       Uiso       1.00
      C553          C  0.9654701  0.2995600  0.6355577    0.00000       Uiso       1.00
      C554          C  0.0035300  0.2489600  0.4459184    0.00000       Uiso       1.00
      H555          H  0.9525000  0.2331900  0.3444687    0.00000       Uiso       1.00
      C556          C  0.0030400  0.3002300  0.6353476    0.00000       Uiso       1.00
      H557          H  0.9511400  0.3178100  0.7209873    0.00000       Uiso       1.00
      C558          C  0.0224900  0.2749800  0.5392780    0.00000       Uiso       1.00
      H559          H  0.0184200  0.2294800  0.3685386    0.00000       Uiso       1.00
      H560          H  0.0174000  0.3197700  0.7146373    0.00000       Uiso       1.00
      C561          C  0.8253800  0.4237400  0.4343684    0.00000       Uiso       1.00
      C562          C  0.8520800  0.4398600  0.3332688    0.00000       Uiso       1.00
      C563          C  0.8032000  0.4473500  0.5277380    0.00000       Uiso       1.00
      C564          C  0.8574900  0.4773600  0.3307088    0.00000       Uiso       1.00
      H565          H  0.8687500  0.4228600  0.2515191    0.00000       Uiso       1.00
      C566          C  0.8064500  0.4850200  0.5156681    0.00000       Uiso       1.00
      H567          H  0.7835301  0.4362200  0.6161978    0.00000       Uiso       1.00
      C568          C  0.8340300  0.5005200  0.4185585    0.00000       Uiso       1.00
      H569          H  0.8785700  0.4890300  0.2511491    0.00000       Uiso       1.00
      H570          H  0.7886600  0.5026200  0.5896078    0.00000       Uiso       1.00
      C571          C  0.7979800  0.1563000  0.4731683    0.00000       Uiso       1.00
      C572          C  0.8199300  0.1339200  0.5744279    0.00000       Uiso       1.00
      C573          C  0.7717900  0.1389500  0.3734586    0.00000       Uiso       1.00
      C574          C  0.8172300  0.0961700  0.5702579    0.00000       Uiso       1.00
      H575          H  0.8390400  0.1461600  0.6624876    0.00000       Uiso       1.00
      C576          C  0.7666500  0.1014100  0.3796986    0.00000       Uiso       1.00
      H577          H  0.7554600  0.1547800  0.2850789    0.00000       Uiso       1.00
      C578          C  0.7897300  0.0795300  0.4767482    0.00000       Uiso       1.00
      H579          H  0.8347700  0.0794600  0.6497676    0.00000       Uiso       1.00
      H580          H  0.7458301  0.0887200  0.3016489    0.00000       Uiso       1.00
      C581          C  0.0765800  0.3038700  0.4797682    0.00000       Uiso       1.00
      H582          H  0.0610300  0.3277900  0.4297384    0.00000       Uiso       1.00
      C583          C  0.7594100  0.0242300  0.5250481    0.00000       Uiso       1.00
      H584          H  0.7353600  0.0385600  0.5793778    0.00000       Uiso       1.00
      C585          C  0.3214700  0.0691300  0.4050385    0.00000       Uiso       1.00
      H586          H  0.2947400  0.0622000  0.3471387    0.00000       Uiso       1.00
      N587          N  0.7873800  0.0414600  0.4744282    0.00000       Uiso       1.00
      N588          N  0.3430500  0.0445100  0.4594583    0.00000       Uiso       1.00
      N589          N  0.0604700  0.2755000  0.5357680    0.00000       Uiso       1.00
      N590          N  0.8398900  0.5382500  0.4190485    0.00000       Uiso       1.00
      C591          C  0.8158500  0.5610100  0.3697886    0.00000       Uiso       1.00
      H592          H  0.7895200  0.5519100  0.3142889    0.00000       Uiso       1.00
