data_crystal
 
_cell_length_a    37.09800
_cell_length_b    36.80160
_cell_length_c    8.06800
_cell_angle_alpha 89.93330
_cell_angle_beta  90.10050
_cell_angle_gamma 89.90380
 
_symmetry_space_group_name_Hall 'P 1'
_symmetry_space_group_name_H-M  'P 1'
 
loop_
_symmetry_equiv_pos_as_xyz
 'x,y,z' 
 
loop_
_atom_site_label
_atom_site_type_symbol
_atom_site_fract_x
_atom_site_fract_y
_atom_site_fract_z
_atom_site_charge
C          C       0.27292   0.88133   0.98764   0.0000000000
C          C       0.24301   0.90707   0.97153   0.0000000000
N          N       0.25933   0.84708   0.01199   0.0000000000
C          C       0.21222   0.88827   0.00258   0.0000000000
H          H       0.24425   0.93601   0.93979   0.0000000000
C          C       0.22247   0.85010   0.02067   0.0000000000
H          H       0.18528   0.90035   0.00904   0.0000000000
C          C       0.19772   0.82071   0.03602   0.0000000000
C          C       0.20852   0.78344   0.02873   0.0000000000
C          C       0.18528   0.75225   0.02644   0.0000000000
N          N       0.24325   0.77012   0.02263   0.0000000000
C          C       0.20648   0.72154   0.02860   0.0000000000
H          H       0.15581   0.75202   0.02038   0.0000000000
C          C       0.24351   0.73262   0.02188   0.0000000000
H          H       0.19620   0.69374   0.03494   0.0000000000
C          C       0.37137   0.71338   0.02404   0.0000000000
C          C       0.34066   0.69424   0.99625   0.0000000000
C          C       0.31065   0.72005   0.00665   0.0000000000
N          N       0.32412   0.75451   0.02322   0.0000000000
H          H       0.39830   0.70140   0.03516   0.0000000000
H          H       0.33973   0.66504   0.96981   0.0000000000
C          C       0.38581   0.78097   0.04128   0.0000000000
C          C       0.37513   0.81816   0.02985   0.0000000000
C          C       0.39832   0.84932   0.02692   0.0000000000
N          N       0.34039   0.83129   0.01770   0.0000000000
C          C       0.37704   0.87994   0.02044   0.0000000000
H          H       0.42782   0.84950   0.02710   0.0000000000
C          C       0.34005   0.86873   0.00965   0.0000000000
H          H       0.38733   0.90777   0.02439   0.0000000000
C          C       0.30974   0.89226   0.99000   0.0000000000
C          C       0.27388   0.70900   0.01213   0.0000000000
C          C       0.36099   0.75164   0.03284   0.0000000000
H          H       0.26588   0.78655   0.02061   0.0000000000
H          H       0.31787   0.81473   0.01418   0.0000000000
C          C       0.15821   0.82699   0.05577   0.0000000000
C          C       0.13842   0.80431   0.16437   0.0000000000
C          C       0.13816   0.85287   0.96393   0.0000000000
C          C       0.10086   0.80430   0.16663   0.0000000000
H          H       0.15266   0.78588   0.24964   0.0000000000
C          C       0.10066   0.85529   0.97631   0.0000000000
H          H       0.15150   0.87043   0.87242   0.0000000000
C          C       0.08136   0.82951   0.06979   0.0000000000
H          H       0.08657   0.78514   0.24799   0.0000000000
H          H       0.08600   0.87514   0.89952   0.0000000000
C          C       0.42524   0.77380   0.05602   0.0000000000
C          C       0.44320   0.74692   0.96164   0.0000000000
C          C       0.44675   0.79542   0.16199   0.0000000000
C          C       0.48045   0.74188   0.97216   0.0000000000
H          H       0.42833   0.73056   0.87037   0.0000000000
C          C       0.48424   0.79285   0.16184   0.0000000000
H          H       0.43403   0.81473   0.24799   0.0000000000
C          C       0.50162   0.76614   0.06548   0.0000000000
H          H       0.49357   0.72117   0.89463   0.0000000000
H          H       0.50012   0.81106   0.24157   0.0000000000
C          C       0.31784   0.93190   0.97848   0.0000000000
C          C       0.34577   0.94531   0.87604   0.0000000000
C          C       0.29831   0.95761   0.07271   0.0000000000
C          C       0.35479   0.98208   0.87273   0.0000000000
H          H       0.36052   0.92674   0.79357   0.0000000000
C          C       0.30508   0.99479   0.05942   0.0000000000
H          H       0.27795   0.94854   0.16273   0.0000000000
C          C       0.33378   0.00748   0.96075   0.0000000000
H          H       0.37672   0.99157   0.79205   0.0000000000
H          H       0.28912   0.01409   0.13334   0.0000000000
C          C       0.26718   0.66907   0.01501   0.0000000000
C          C       0.28891   0.64657   0.11670   0.0000000000
C          C       0.24078   0.65183   0.91599   0.0000000000
C          C       0.28703   0.60883   0.10798   0.0000000000
H          H       0.30770   0.65879   0.20617   0.0000000000
C          C       0.23648   0.61413   0.91757   0.0000000000
H          H       0.22401   0.66780   0.82985   0.0000000000
C          C       0.26085   0.59211   0.00686   0.0000000000
H          H       0.30509   0.59216   0.18531   0.0000000000
H          H       0.21611   0.60145   0.83723   0.0000000000
C          C       0.55736   0.79129   0.00650   0.0000000000
H          H       0.54296   0.81602   0.95730   0.0000000000
C          C       0.28474   0.53408   0.95811   0.0000000000
H          H       0.31081   0.54604   0.91241   0.0000000000
C          C       0.28267   0.49423   0.96377   0.0000000000
C          C       0.30854   0.47259   0.88225   0.0000000000
C          C       0.25497   0.47674   0.05268   0.0000000000
C          C       0.30640   0.43475   0.88623   0.0000000000
H          H       0.33002   0.48562   0.80921   0.0000000000
C          C       0.25365   0.43900   0.06167   0.0000000000
H          H       0.23469   0.49317   0.11822   0.0000000000
C          C       0.27924   0.41711   0.97850   0.0000000000
H          H       0.32553   0.41892   0.81109   0.0000000000
H          H       0.23259   0.42630   0.13826   0.0000000000
C          C       0.27496   0.37698   0.98264   0.0000000000
C          C       0.23960   0.36384   0.97045   0.0000000000
C          C       0.30369   0.35139   0.99960   0.0000000000
C          C       0.23088   0.32674   0.96932   0.0000000000
H          H       0.21753   0.38377   0.96204   0.0000000000
C          C       0.29611   0.31318   0.99332   0.0000000000
C          C       0.34036   0.36257   0.02257   0.0000000000
C          C       0.25961   0.30088   0.97510   0.0000000000
C          C       0.19187   0.31784   0.96551   0.0000000000
C          C       0.32514   0.28717   0.00524   0.0000000000
C          C       0.36790   0.33788   0.03276   0.0000000000
H          H       0.34694   0.39162   0.03224   0.0000000000
C          C       0.25326   0.26252   0.96653   0.0000000000
C          C       0.16834   0.34061   0.87432   0.0000000000
C          C       0.17640   0.28952   0.06002   0.0000000000
C          C       0.31775   0.24901   0.99239   0.0000000000
C          C       0.36148   0.29943   0.02941   0.0000000000
H          H       0.39555   0.34835   0.04220   0.0000000000
C          C       0.28077   0.23789   0.98064   0.0000000000
H          H       0.22577   0.25216   0.94850   0.0000000000
C          C       0.13117   0.33594   0.88099   0.0000000000
H          H       0.17913   0.36227   0.79445   0.0000000000
C          C       0.13925   0.28377   0.06072   0.0000000000
H          H       0.19328   0.27255   0.14150   0.0000000000
C          C       0.34692   0.22349   0.99125   0.0000000000
C          C       0.38990   0.27339   0.04792   0.0000000000
H          H       0.27373   0.20890   0.98454   0.0000000000
C          C       0.11594   0.30730   0.97345   0.0000000000
H          H       0.11355   0.35442   0.81006   0.0000000000
H          H       0.12794   0.26161   0.13602   0.0000000000
C          C       0.38181   0.23647   0.02418   0.0000000000
C          C       0.34207   0.18408   0.95851   0.0000000000
C          C       0.42798   0.28333   0.08250   0.0000000000
H          H       0.40402   0.21668   0.03124   0.0000000000
C          C       0.31508   0.17097   0.84994   0.0000000000
C          C       0.36466   0.15794   0.03514   0.0000000000
C          C       0.43783   0.31240   0.18776   0.0000000000
C          C       0.45618   0.26325   0.00807   0.0000000000
C          C       0.30848   0.13389   0.83351   0.0000000000
H          H       0.29926   0.18986   0.77305   0.0000000000
C          C       0.35919   0.12081   0.01263   0.0000000000
H          H       0.38626   0.16653   0.12011   0.0000000000
C          C       0.47377   0.32273   0.20676   0.0000000000
H          H       0.41729   0.32682   0.26060   0.0000000000
C          C       0.49213   0.27264   0.03217   0.0000000000
H          H       0.45005   0.24051   0.92418   0.0000000000
C          C       0.33007   0.10804   0.91639   0.0000000000
H          H       0.28661   0.12479   0.75093   0.0000000000
H          H       0.37689   0.10119   0.07617   0.0000000000
C          C       0.50159   0.30319   0.12812   0.0000000000
H          H       0.48035   0.34584   0.28808   0.0000000000
H          H       0.51355   0.25679   0.97136   0.0000000000
N          N       0.25794   0.55406   0.00203   0.0000000000
N          N       0.53962   0.76383   0.06171   0.0000000000
C          C       0.82119   0.60049   0.88323   0.0000000000
C          C       0.79726   0.62472   0.80371   0.0000000000
C          C       0.84962   0.61528   0.97776   0.0000000000
C          C       0.80131   0.66220   0.81957   0.0000000000
H          H       0.77560   0.61403   0.72399   0.0000000000
C          C       0.85272   0.65271   0.99893   0.0000000000
H          H       0.86886   0.59696   0.03995   0.0000000000
C          C       0.82824   0.67715   0.92307   0.0000000000
H          H       0.78359   0.67997   0.74594   0.0000000000
H          H       0.87405   0.66298   0.08151   0.0000000000
C          C       0.83176   0.71691   0.95091   0.0000000000
C          C       0.86665   0.73136   0.96354   0.0000000000
C          C       0.80177   0.74108   0.96728   0.0000000000
C          C       0.87403   0.76858   0.98335   0.0000000000
H          H       0.88949   0.71232   0.95663   0.0000000000
C          C       0.80794   0.77939   0.98406   0.0000000000
C          C       0.76523   0.72831   0.96861   0.0000000000
C          C       0.84416   0.79322   0.98889   0.0000000000
C          C       0.91275   0.77903   0.99318   0.0000000000
C          C       0.77767   0.80397   0.99438   0.0000000000
C          C       0.73653   0.75169   0.97306   0.0000000000
H          H       0.75961   0.69900   0.96622   0.0000000000
C          C       0.84888   0.83181   0.00105   0.0000000000
C          C       0.93822   0.75817   0.90374   0.0000000000
C          C       0.92641   0.80763   0.09218   0.0000000000
C          C       0.78372   0.84235   0.00926   0.0000000000
C          C       0.74147   0.79016   0.98835   0.0000000000
H          H       0.70921   0.74029   0.96587   0.0000000000
C          C       0.82023   0.85498   0.01793   0.0000000000
H          H       0.87601   0.84365   0.99732   0.0000000000
C          C       0.97499   0.76511   0.91476   0.0000000000
H          H       0.92933   0.73627   0.82047   0.0000000000
C          C       0.96315   0.81591   0.09612   0.0000000000
H          H       0.90846   0.82306   0.17471   0.0000000000
C          C       0.75373   0.86674   0.01272   0.0000000000
C          C       0.71170   0.81468   0.99841   0.0000000000
H          H       0.82581   0.88398   0.03762   0.0000000000
C          C       0.98830   0.79449   0.00881   0.0000000000
H          H       0.99389   0.74795   0.84426   0.0000000000
H          H       0.97261   0.83847   0.17428   0.0000000000
C          C       0.71886   0.85204   0.00945   0.0000000000
C          C       0.75646   0.90699   0.01603   0.0000000000
C          C       0.67287   0.80460   0.99391   0.0000000000
H          H       0.69582   0.87087   0.01475   0.0000000000
C          C       0.78232   0.92647   0.92308   0.0000000000
C          C       0.73087   0.92728   0.10708   0.0000000000
C          C       0.65749   0.77568   0.08483   0.0000000000
C          C       0.64926   0.82734   0.90299   0.0000000000
C          C       0.78368   0.96429   0.92821   0.0000000000
H          H       0.80097   0.91213   0.83967   0.0000000000
C          C       0.73120   0.96514   0.10631   0.0000000000
H          H       0.71061   0.91332   0.18372   0.0000000000
C          C       0.62029   0.76980   0.08508   0.0000000000
H          H       0.67450   0.75829   0.16398   0.0000000000
C          C       0.61214   0.82238   0.90841   0.0000000000
H          H       0.66003   0.84932   0.82487   0.0000000000
C          C       0.75810   0.98432   0.01960   0.0000000000
H          H       0.80428   0.97884   0.85604   0.0000000000
H          H       0.71089   0.98008   0.17891   0.0000000000
C          C       0.59685   0.79357   0.99972   0.0000000000
H          H       0.60912   0.74731   0.15875   0.0000000000
H          H       0.59450   0.84097   0.83810   0.0000000000
C          C       0.53973   0.31375   0.14349   0.0000000000
H          H       0.54594   0.34039   0.20563   0.0000000000
C          C       0.02754   0.79978   0.01553   0.0000000000
H          H       0.04369   0.77599   0.96847   0.0000000000
N          N       0.04329   0.82883   0.06665   0.0000000000
N          N       0.56425   0.29252   0.08724   0.0000000000
C          C       0.78567   0.36893   0.94429   0.0000000000
C          C       0.75340   0.39136   0.92373   0.0000000000
N          N       0.77557   0.33369   0.97454   0.0000000000
C          C       0.72465   0.36983   0.95895   0.0000000000
H          H       0.75182   0.41997   0.88632   0.0000000000
C          C       0.73865   0.33307   0.98450   0.0000000000
H          H       0.69667   0.37921   0.96196   0.0000000000
C          C       0.71709   0.30147   0.00830   0.0000000000
C          C       0.73120   0.26534   0.00016   0.0000000000
C          C       0.71057   0.23232   0.99934   0.0000000000
N          N       0.76684   0.25495   0.98911   0.0000000000
C          C       0.73418   0.20348   0.99679   0.0000000000
H          H       0.68121   0.22958   0.99702   0.0000000000
C          C       0.77012   0.21761   0.98642   0.0000000000
H          H       0.72618   0.17492   0.00326   0.0000000000
C          C       0.89865   0.21068   0.00309   0.0000000000
C          C       0.87034   0.18835   0.97097   0.0000000000
C          C       0.83785   0.21096   0.97405   0.0000000000
N          N       0.84754   0.24671   0.99087   0.0000000000
H          H       0.92652   0.20163   0.02134   0.0000000000
H          H       0.87244   0.15910   0.94736   0.0000000000
C          C       0.90609   0.27949   0.01448   0.0000000000
C          C       0.89232   0.31556   0.99886   0.0000000000
C          C       0.91289   0.34854   0.99413   0.0000000000
N          N       0.85670   0.32570   0.98265   0.0000000000
C          C       0.88924   0.37726   0.98194   0.0000000000
H          H       0.94226   0.35121   0.99708   0.0000000000
C          C       0.85338   0.36294   0.97018   0.0000000000
H          H       0.89717   0.40588   0.98243   0.0000000000
C          C       0.82118   0.38352   0.94679   0.0000000000
C          C       0.80229   0.19656   0.97446   0.0000000000
C          C       0.88436   0.24774   0.00650   0.0000000000
H          H       0.78817   0.27303   0.98537   0.0000000000
H          H       0.83548   0.30749   0.97940   0.0000000000
C          C       0.67754   0.30377   0.03944   0.0000000000
C          C       0.66188   0.27920   0.15389   0.0000000000
C          C       0.65361   0.32727   0.95448   0.0000000000
C          C       0.62474   0.27550   0.17050   0.0000000000
H          H       0.67931   0.26210   0.23203   0.0000000000
C          C       0.61641   0.32605   0.98090   0.0000000000
H          H       0.66340   0.34577   0.85757   0.0000000000
C          C       0.60135   0.29918   0.08436   0.0000000000
H          H       0.61368   0.25531   0.25713   0.0000000000
H          H       0.59862   0.34437   0.91025   0.0000000000
C          C       0.94595   0.27600   0.03014   0.0000000000
C          C       0.96602   0.25077   0.93546   0.0000000000
C          C       0.96547   0.29956   0.13556   0.0000000000
C          C       0.00353   0.24896   0.94592   0.0000000000
H          H       0.95250   0.23319   0.84447   0.0000000000
C          C       0.00304   0.30023   0.13535   0.0000000000
H          H       0.95114   0.31781   0.22099   0.0000000000
C          C       0.02249   0.27498   0.03928   0.0000000000
H          H       0.01842   0.22948   0.86854   0.0000000000
H          H       0.01740   0.31977   0.21464   0.0000000000
C          C       0.82538   0.42374   0.93437   0.0000000000
C          C       0.85208   0.43986   0.83327   0.0000000000
C          C       0.80320   0.44735   0.02774   0.0000000000
C          C       0.85749   0.47736   0.83071   0.0000000000
H          H       0.86875   0.42286   0.75152   0.0000000000
C          C       0.80645   0.48502   0.01567   0.0000000000
H          H       0.78353   0.43622   0.11620   0.0000000000
C          C       0.83403   0.50052   0.91856   0.0000000000
H          H       0.87857   0.48903   0.75115   0.0000000000
H          H       0.78866   0.50262   0.08961   0.0000000000
C          C       0.79798   0.15630   0.97317   0.0000000000
C          C       0.81993   0.13392   0.07443   0.0000000000
C          C       0.77179   0.13895   0.87346   0.0000000000
C          C       0.81723   0.09617   0.07026   0.0000000000
H          H       0.83904   0.14616   0.16249   0.0000000000
C          C       0.76665   0.10141   0.87970   0.0000000000
H          H       0.75546   0.15478   0.78508   0.0000000000
C          C       0.78973   0.07953   0.97675   0.0000000000
H          H       0.83477   0.07946   0.14977   0.0000000000
H          H       0.74583   0.08872   0.80165   0.0000000000
C          C       0.07658   0.30387   0.97977   0.0000000000
H          H       0.06103   0.32779   0.92974   0.0000000000
C          C       0.75941   0.02423   0.02505   0.0000000000
H          H       0.73536   0.03856   0.07938   0.0000000000
C          C       0.32147   0.06913   0.90504   0.0000000000
H          H       0.29474   0.06220   0.84714   0.0000000000
N          N       0.78738   0.04146   0.97443   0.0000000000
N          N       0.34305   0.04451   0.95946   0.0000000000
N          N       0.06047   0.27550   0.03577   0.0000000000
N          N       0.83989   0.53825   0.91905   0.0000000000
C          C       0.81585   0.56101   0.86979   0.0000000000
H          H       0.78952   0.55191   0.81429   0.0000000000
C          C       0.27292   0.88133   0.48764   0.0000000000
C          C       0.24301   0.90707   0.47153   0.0000000000
N          N       0.25933   0.84708   0.51199   0.0000000000
C          C       0.21222   0.88827   0.50258   0.0000000000
H          H       0.24425   0.93601   0.43979   0.0000000000
C          C       0.22247   0.85010   0.52067   0.0000000000
H          H       0.18528   0.90035   0.50904   0.0000000000
C          C       0.19772   0.82071   0.53602   0.0000000000
C          C       0.20852   0.78344   0.52873   0.0000000000
C          C       0.18528   0.75225   0.52644   0.0000000000
N          N       0.24325   0.77012   0.52263   0.0000000000
C          C       0.20648   0.72154   0.52860   0.0000000000
H          H       0.15581   0.75202   0.52038   0.0000000000
C          C       0.24351   0.73262   0.52188   0.0000000000
H          H       0.19620   0.69374   0.53494   0.0000000000
C          C       0.37137   0.71338   0.52404   0.0000000000
C          C       0.34066   0.69424   0.49625   0.0000000000
C          C       0.31065   0.72005   0.50665   0.0000000000
N          N       0.32412   0.75451   0.52322   0.0000000000
H          H       0.39830   0.70140   0.53516   0.0000000000
H          H       0.33973   0.66504   0.46981   0.0000000000
C          C       0.38581   0.78097   0.54128   0.0000000000
C          C       0.37513   0.81816   0.52985   0.0000000000
C          C       0.39832   0.84932   0.52692   0.0000000000
N          N       0.34039   0.83129   0.51770   0.0000000000
C          C       0.37704   0.87994   0.52044   0.0000000000
H          H       0.42782   0.84950   0.52710   0.0000000000
C          C       0.34005   0.86873   0.50965   0.0000000000
H          H       0.38733   0.90777   0.52439   0.0000000000
C          C       0.30974   0.89226   0.49000   0.0000000000
C          C       0.27388   0.70900   0.51213   0.0000000000
C          C       0.36099   0.75164   0.53284   0.0000000000
H          H       0.26588   0.78655   0.52061   0.0000000000
H          H       0.31787   0.81473   0.51418   0.0000000000
C          C       0.15821   0.82699   0.55577   0.0000000000
C          C       0.13842   0.80431   0.66437   0.0000000000
C          C       0.13816   0.85287   0.46393   0.0000000000
C          C       0.10086   0.80430   0.66663   0.0000000000
H          H       0.15266   0.78588   0.74964   0.0000000000
C          C       0.10066   0.85529   0.47631   0.0000000000
H          H       0.15150   0.87043   0.37242   0.0000000000
C          C       0.08136   0.82951   0.56979   0.0000000000
H          H       0.08657   0.78514   0.74799   0.0000000000
H          H       0.08600   0.87514   0.39952   0.0000000000
C          C       0.42524   0.77380   0.55602   0.0000000000
C          C       0.44320   0.74692   0.46164   0.0000000000
C          C       0.44675   0.79542   0.66199   0.0000000000
C          C       0.48045   0.74188   0.47216   0.0000000000
H          H       0.42833   0.73056   0.37037   0.0000000000
C          C       0.48424   0.79285   0.66184   0.0000000000
H          H       0.43403   0.81473   0.74799   0.0000000000
C          C       0.50162   0.76614   0.56548   0.0000000000
H          H       0.49357   0.72117   0.39463   0.0000000000
H          H       0.50012   0.81106   0.74157   0.0000000000
C          C       0.31784   0.93190   0.47848   0.0000000000
C          C       0.34577   0.94531   0.37604   0.0000000000
C          C       0.29831   0.95761   0.57271   0.0000000000
C          C       0.35479   0.98208   0.37273   0.0000000000
H          H       0.36052   0.92674   0.29357   0.0000000000
C          C       0.30508   0.99479   0.55942   0.0000000000
H          H       0.27795   0.94854   0.66273   0.0000000000
C          C       0.33378   0.00748   0.46075   0.0000000000
H          H       0.37672   0.99157   0.29205   0.0000000000
H          H       0.28912   0.01409   0.63334   0.0000000000
C          C       0.26718   0.66907   0.51501   0.0000000000
C          C       0.28891   0.64657   0.61670   0.0000000000
C          C       0.24078   0.65183   0.41599   0.0000000000
C          C       0.28703   0.60883   0.60798   0.0000000000
H          H       0.30770   0.65879   0.70617   0.0000000000
C          C       0.23648   0.61413   0.41757   0.0000000000
H          H       0.22401   0.66780   0.32985   0.0000000000
C          C       0.26085   0.59211   0.50686   0.0000000000
H          H       0.30509   0.59216   0.68531   0.0000000000
H          H       0.21611   0.60145   0.33723   0.0000000000
C          C       0.55736   0.79129   0.50650   0.0000000000
H          H       0.54296   0.81602   0.45730   0.0000000000
C          C       0.28474   0.53408   0.45811   0.0000000000
H          H       0.31081   0.54604   0.41241   0.0000000000
C          C       0.28267   0.49423   0.46377   0.0000000000
C          C       0.30854   0.47259   0.38225   0.0000000000
C          C       0.25497   0.47674   0.55268   0.0000000000
C          C       0.30640   0.43475   0.38623   0.0000000000
H          H       0.33002   0.48562   0.30921   0.0000000000
C          C       0.25365   0.43900   0.56167   0.0000000000
H          H       0.23469   0.49317   0.61822   0.0000000000
C          C       0.27924   0.41711   0.47850   0.0000000000
H          H       0.32553   0.41892   0.31109   0.0000000000
H          H       0.23259   0.42630   0.63826   0.0000000000
C          C       0.27496   0.37698   0.48264   0.0000000000
C          C       0.23960   0.36384   0.47045   0.0000000000
C          C       0.30369   0.35139   0.49960   0.0000000000
C          C       0.23088   0.32674   0.46932   0.0000000000
H          H       0.21753   0.38377   0.46204   0.0000000000
C          C       0.29611   0.31318   0.49332   0.0000000000
C          C       0.34036   0.36257   0.52257   0.0000000000
C          C       0.25961   0.30088   0.47510   0.0000000000
C          C       0.19187   0.31784   0.46551   0.0000000000
C          C       0.32514   0.28717   0.50524   0.0000000000
C          C       0.36790   0.33788   0.53276   0.0000000000
H          H       0.34694   0.39162   0.53224   0.0000000000
C          C       0.25326   0.26252   0.46653   0.0000000000
C          C       0.16834   0.34061   0.37432   0.0000000000
C          C       0.17640   0.28952   0.56002   0.0000000000
C          C       0.31775   0.24901   0.49239   0.0000000000
C          C       0.36148   0.29943   0.52941   0.0000000000
H          H       0.39555   0.34835   0.54220   0.0000000000
C          C       0.28077   0.23789   0.48064   0.0000000000
H          H       0.22577   0.25216   0.44850   0.0000000000
C          C       0.13117   0.33594   0.38099   0.0000000000
H          H       0.17913   0.36227   0.29445   0.0000000000
C          C       0.13925   0.28377   0.56072   0.0000000000
H          H       0.19328   0.27255   0.64150   0.0000000000
C          C       0.34692   0.22349   0.49125   0.0000000000
C          C       0.38990   0.27339   0.54792   0.0000000000
H          H       0.27373   0.20890   0.48454   0.0000000000
C          C       0.11594   0.30730   0.47345   0.0000000000
H          H       0.11355   0.35442   0.31006   0.0000000000
H          H       0.12794   0.26161   0.63602   0.0000000000
C          C       0.38181   0.23647   0.52418   0.0000000000
C          C       0.34207   0.18408   0.45851   0.0000000000
C          C       0.42798   0.28333   0.58250   0.0000000000
H          H       0.40402   0.21668   0.53124   0.0000000000
C          C       0.31508   0.17097   0.34994   0.0000000000
C          C       0.36466   0.15794   0.53514   0.0000000000
C          C       0.43783   0.31240   0.68776   0.0000000000
C          C       0.45618   0.26325   0.50807   0.0000000000
C          C       0.30848   0.13389   0.33351   0.0000000000
H          H       0.29926   0.18986   0.27305   0.0000000000
C          C       0.35919   0.12081   0.51263   0.0000000000
H          H       0.38626   0.16653   0.62011   0.0000000000
C          C       0.47377   0.32273   0.70676   0.0000000000
H          H       0.41729   0.32682   0.76060   0.0000000000
C          C       0.49213   0.27264   0.53217   0.0000000000
H          H       0.45005   0.24051   0.42418   0.0000000000
C          C       0.33007   0.10804   0.41639   0.0000000000
H          H       0.28661   0.12479   0.25093   0.0000000000
H          H       0.37689   0.10119   0.57617   0.0000000000
C          C       0.50159   0.30319   0.62812   0.0000000000
H          H       0.48035   0.34584   0.78808   0.0000000000
H          H       0.51355   0.25679   0.47136   0.0000000000
N          N       0.25794   0.55406   0.50203   0.0000000000
N          N       0.53962   0.76383   0.56171   0.0000000000
C          C       0.82119   0.60049   0.38323   0.0000000000
C          C       0.79726   0.62472   0.30371   0.0000000000
C          C       0.84962   0.61528   0.47776   0.0000000000
C          C       0.80131   0.66220   0.31957   0.0000000000
H          H       0.77560   0.61403   0.22399   0.0000000000
C          C       0.85272   0.65271   0.49893   0.0000000000
H          H       0.86886   0.59696   0.53995   0.0000000000
C          C       0.82824   0.67715   0.42307   0.0000000000
H          H       0.78359   0.67997   0.24594   0.0000000000
H          H       0.87405   0.66298   0.58151   0.0000000000
C          C       0.83176   0.71691   0.45091   0.0000000000
C          C       0.86665   0.73136   0.46354   0.0000000000
C          C       0.80177   0.74108   0.46728   0.0000000000
C          C       0.87403   0.76858   0.48335   0.0000000000
H          H       0.88949   0.71232   0.45663   0.0000000000
C          C       0.80794   0.77939   0.48406   0.0000000000
C          C       0.76523   0.72831   0.46861   0.0000000000
C          C       0.84416   0.79322   0.48889   0.0000000000
C          C       0.91275   0.77903   0.49318   0.0000000000
C          C       0.77767   0.80397   0.49438   0.0000000000
C          C       0.73653   0.75169   0.47306   0.0000000000
H          H       0.75961   0.69900   0.46622   0.0000000000
C          C       0.84888   0.83181   0.50105   0.0000000000
C          C       0.93822   0.75817   0.40374   0.0000000000
C          C       0.92641   0.80763   0.59218   0.0000000000
C          C       0.78372   0.84235   0.50926   0.0000000000
C          C       0.74147   0.79016   0.48835   0.0000000000
H          H       0.70921   0.74029   0.46587   0.0000000000
C          C       0.82023   0.85498   0.51793   0.0000000000
H          H       0.87601   0.84365   0.49732   0.0000000000
C          C       0.97499   0.76511   0.41476   0.0000000000
H          H       0.92933   0.73627   0.32047   0.0000000000
C          C       0.96315   0.81591   0.59612   0.0000000000
H          H       0.90846   0.82306   0.67471   0.0000000000
C          C       0.75373   0.86674   0.51272   0.0000000000
C          C       0.71170   0.81468   0.49841   0.0000000000
H          H       0.82581   0.88398   0.53762   0.0000000000
C          C       0.98830   0.79449   0.50881   0.0000000000
H          H       0.99389   0.74795   0.34426   0.0000000000
H          H       0.97261   0.83847   0.67428   0.0000000000
C          C       0.71886   0.85204   0.50945   0.0000000000
C          C       0.75646   0.90699   0.51603   0.0000000000
C          C       0.67287   0.80460   0.49391   0.0000000000
H          H       0.69582   0.87087   0.51475   0.0000000000
C          C       0.78232   0.92647   0.42308   0.0000000000
C          C       0.73087   0.92728   0.60708   0.0000000000
C          C       0.65749   0.77568   0.58483   0.0000000000
C          C       0.64926   0.82734   0.40299   0.0000000000
C          C       0.78368   0.96429   0.42821   0.0000000000
H          H       0.80097   0.91213   0.33967   0.0000000000
C          C       0.73120   0.96514   0.60631   0.0000000000
H          H       0.71061   0.91332   0.68372   0.0000000000
C          C       0.62029   0.76980   0.58508   0.0000000000
H          H       0.67450   0.75829   0.66398   0.0000000000
C          C       0.61214   0.82238   0.40841   0.0000000000
H          H       0.66003   0.84932   0.32487   0.0000000000
C          C       0.75810   0.98432   0.51960   0.0000000000
H          H       0.80428   0.97884   0.35604   0.0000000000
H          H       0.71089   0.98008   0.67891   0.0000000000
C          C       0.59685   0.79357   0.49972   0.0000000000
H          H       0.60912   0.74731   0.65875   0.0000000000
H          H       0.59450   0.84097   0.33810   0.0000000000
C          C       0.53973   0.31375   0.64349   0.0000000000
H          H       0.54594   0.34039   0.70563   0.0000000000
C          C       0.02754   0.79978   0.51553   0.0000000000
H          H       0.04369   0.77599   0.46847   0.0000000000
N          N       0.04329   0.82883   0.56665   0.0000000000
N          N       0.56425   0.29252   0.58724   0.0000000000
C          C       0.78567   0.36893   0.44429   0.0000000000
C          C       0.75340   0.39136   0.42373   0.0000000000
N          N       0.77557   0.33369   0.47454   0.0000000000
C          C       0.72465   0.36983   0.45895   0.0000000000
H          H       0.75182   0.41997   0.38632   0.0000000000
C          C       0.73865   0.33307   0.48450   0.0000000000
H          H       0.69667   0.37921   0.46196   0.0000000000
C          C       0.71709   0.30147   0.50830   0.0000000000
C          C       0.73120   0.26534   0.50016   0.0000000000
C          C       0.71057   0.23232   0.49934   0.0000000000
N          N       0.76684   0.25495   0.48911   0.0000000000
C          C       0.73418   0.20348   0.49679   0.0000000000
H          H       0.68121   0.22958   0.49702   0.0000000000
C          C       0.77012   0.21761   0.48642   0.0000000000
H          H       0.72618   0.17492   0.50326   0.0000000000
C          C       0.89865   0.21068   0.50309   0.0000000000
C          C       0.87034   0.18835   0.47097   0.0000000000
C          C       0.83785   0.21096   0.47405   0.0000000000
N          N       0.84754   0.24671   0.49087   0.0000000000
H          H       0.92652   0.20163   0.52134   0.0000000000
H          H       0.87244   0.15910   0.44736   0.0000000000
C          C       0.90609   0.27949   0.51448   0.0000000000
C          C       0.89232   0.31556   0.49886   0.0000000000
C          C       0.91289   0.34854   0.49413   0.0000000000
N          N       0.85670   0.32570   0.48265   0.0000000000
C          C       0.88924   0.37726   0.48194   0.0000000000
H          H       0.94226   0.35121   0.49708   0.0000000000
C          C       0.85338   0.36294   0.47018   0.0000000000
H          H       0.89717   0.40588   0.48243   0.0000000000
C          C       0.82118   0.38352   0.44679   0.0000000000
C          C       0.80229   0.19656   0.47446   0.0000000000
C          C       0.88436   0.24774   0.50650   0.0000000000
H          H       0.78817   0.27303   0.48537   0.0000000000
H          H       0.83548   0.30749   0.47940   0.0000000000
C          C       0.67754   0.30377   0.53944   0.0000000000
C          C       0.66188   0.27920   0.65389   0.0000000000
C          C       0.65361   0.32727   0.45448   0.0000000000
C          C       0.62474   0.27550   0.67050   0.0000000000
H          H       0.67931   0.26210   0.73203   0.0000000000
C          C       0.61641   0.32605   0.48090   0.0000000000
H          H       0.66340   0.34577   0.35757   0.0000000000
C          C       0.60135   0.29918   0.58436   0.0000000000
H          H       0.61368   0.25531   0.75713   0.0000000000
H          H       0.59862   0.34437   0.41025   0.0000000000
C          C       0.94595   0.27600   0.53014   0.0000000000
C          C       0.96602   0.25077   0.43546   0.0000000000
C          C       0.96547   0.29956   0.63556   0.0000000000
C          C       0.00353   0.24896   0.44592   0.0000000000
H          H       0.95250   0.23319   0.34447   0.0000000000
C          C       0.00304   0.30023   0.63535   0.0000000000
H          H       0.95114   0.31781   0.72099   0.0000000000
C          C       0.02249   0.27498   0.53928   0.0000000000
H          H       0.01842   0.22948   0.36854   0.0000000000
H          H       0.01740   0.31977   0.71464   0.0000000000
C          C       0.82538   0.42374   0.43437   0.0000000000
C          C       0.85208   0.43986   0.33327   0.0000000000
C          C       0.80320   0.44735   0.52774   0.0000000000
C          C       0.85749   0.47736   0.33071   0.0000000000
H          H       0.86875   0.42286   0.25152   0.0000000000
C          C       0.80645   0.48502   0.51567   0.0000000000
H          H       0.78353   0.43622   0.61620   0.0000000000
C          C       0.83403   0.50052   0.41856   0.0000000000
H          H       0.87857   0.48903   0.25115   0.0000000000
H          H       0.78866   0.50262   0.58961   0.0000000000
C          C       0.79798   0.15630   0.47317   0.0000000000
C          C       0.81993   0.13392   0.57443   0.0000000000
C          C       0.77179   0.13895   0.37346   0.0000000000
C          C       0.81723   0.09617   0.57026   0.0000000000
H          H       0.83904   0.14616   0.66249   0.0000000000
C          C       0.76665   0.10141   0.37970   0.0000000000
H          H       0.75546   0.15478   0.28508   0.0000000000
C          C       0.78973   0.07953   0.47675   0.0000000000
H          H       0.83477   0.07946   0.64977   0.0000000000
H          H       0.74583   0.08872   0.30165   0.0000000000
C          C       0.07658   0.30387   0.47977   0.0000000000
H          H       0.06103   0.32779   0.42974   0.0000000000
C          C       0.75941   0.02423   0.52505   0.0000000000
H          H       0.73536   0.03856   0.57938   0.0000000000
C          C       0.32147   0.06913   0.40504   0.0000000000
H          H       0.29474   0.06220   0.34714   0.0000000000
N          N       0.78738   0.04146   0.47443   0.0000000000
N          N       0.34305   0.04451   0.45946   0.0000000000
N          N       0.06047   0.27550   0.53577   0.0000000000
N          N       0.83989   0.53825   0.41905   0.0000000000
C          C       0.81585   0.56101   0.36979   0.0000000000
H          H       0.78952   0.55191   0.31429   0.0000000000
