data_SIOC-COF-3-AB
_audit_creation_date              0000-00-00
_audit_creation_method            'LanYouShi'
_symmetry_space_group_name_H-M    'P1'
_cell_length_a                    36.1399994
_cell_length_b                    36.1399994
_cell_length_c                    8.0400000
_cell_angle_alpha                 90.0000000
_cell_angle_beta                  90.0000000
_cell_angle_gamma                 120.0000000
loop_
_atom_site_label
_atom_site_type_symbol
_atom_site_fract_x
_atom_site_fract_y
_atom_site_fract_z
_atom_site_U_iso_or_equiv
_atom_site_adp_type
_atom_site_occupancy
        H1          H -0.1589300  1.3573021  0.4792240    0.00000       Uiso       1.00
        H2          H -0.0877300  1.3866200  0.4857880    0.00000       Uiso       1.00
        H3          H -0.0081600  1.4250051  0.4841320    0.00000       Uiso       1.00
        H4          H -0.0050300  1.5497780  0.4937920    0.00000       Uiso       1.00
        H5          H -0.0847100  1.5113730  0.4953890    0.00000       Uiso       1.00
        H6          H  0.0667930  1.5788471  0.4915090    0.00000       Uiso       1.00
        H7          H  0.1200860  1.5058490  0.4871700    0.00000       Uiso       1.00
        H8          H  0.2507320  1.6186621  0.4983730    0.00000       Uiso       1.00
        H9          H  0.1386680  1.6362680  0.4987690    0.00000       Uiso       1.00
       H10          H  0.2641560  1.6909751  0.5011830    0.00000       Uiso       1.00
       H11          H  0.1566690  1.4774200  0.3451260    0.00000       Uiso       1.00
       H12          H  0.1912190  1.4317881  0.3444820    0.00000       Uiso       1.00
       H13          H  0.2971880  1.5276951  0.6506010    0.00000       Uiso       1.00
       H14          H  0.2640570  1.5742301  0.6480600    0.00000       Uiso       1.00
       H15          H  0.1896260  1.4020770  0.6588230    0.00000       Uiso       1.00
       H16          H  0.1421280  1.3223771  0.6646370    0.00000       Uiso       1.00
       H17          H  0.2356570  1.3084501  0.3529960    0.00000       Uiso       1.00
       H18          H  0.2823540  1.3884180  0.3461930    0.00000       Uiso       1.00
       H19          H  0.3153010  1.4162201  0.6379250    0.00000       Uiso       1.00
       H20          H  0.3945790  1.4488921  0.6380670    0.00000       Uiso       1.00
       H21          H  0.4068850  1.5610180  0.3632610    0.00000       Uiso       1.00
       H22          H  0.3271210  1.5271240  0.3592170    0.00000       Uiso       1.00
       H23          H  0.0956500  1.2644119  0.5145980    0.00000       Uiso       1.00
       H24          H  0.0757090  1.1337781  0.4992990    0.00000       Uiso       1.00
       H25          H  0.2069200  1.2441131  0.4971750    0.00000       Uiso       1.00
       H26          H  0.4527980  1.4640371  0.4927050    0.00000       Uiso       1.00
       H27          H  0.5828790  1.5756330  0.4986860    0.00000       Uiso       1.00
       H28          H  0.4714690  1.5948781  0.4994890    0.00000       Uiso       1.00
       H29          H  0.0226690  1.2061710  0.5173410    0.00000       Uiso       1.00
       H30          H -0.0488500  1.1767529  0.5120170    0.00000       Uiso       1.00
       H31          H -0.1284500  1.1382700  0.5125590    0.00000       Uiso       1.00
       H32          H -0.1313700  1.0135961  0.5046860    0.00000       Uiso       1.00
       H33          H -0.0517200  1.0520760  0.5041570    0.00000       Uiso       1.00
       H34          H -0.2030000  0.9844190  0.5041320    0.00000       Uiso       1.00
       H35          H  0.5975210  1.6480820  0.4924620    0.00000       Uiso       1.00
       H36          H  0.6366100  1.7188991  0.4098630    0.00000       Uiso       1.00
       H37          H  0.6780190  1.7987090  0.4077190    0.00000       Uiso       1.00
       H38          H  0.5620070  1.8020090  0.5679460    0.00000       Uiso       1.00
       H39          H  0.5206600  1.7222871  0.5699040    0.00000       Uiso       1.00
       H40          H  0.3021851  1.7608391  0.4286460    0.00000       Uiso       1.00
       H41          H  0.3435560  1.8406061  0.4278780    0.00000       Uiso       1.00
       H42          H  0.2274540  1.8437710  0.5866719    0.00000       Uiso       1.00
       H43          H  0.1860510  1.7639800  0.5880530    0.00000       Uiso       1.00
       H44          H  0.2663540  1.9143970  0.5121090    0.00000       Uiso       1.00
       H45          H  0.5996910  1.8715900  0.4929460    0.00000       Uiso       1.00
       H46          H  0.3923160  1.9679071  0.5076030    0.00000       Uiso       1.00
       H47          H  0.4106240  2.0986331  0.5026470    0.00000       Uiso       1.00
       H48          H  0.2806790  1.9867361  0.5006490    0.00000       Uiso       1.00
       H49          H  0.7251930  1.9267291  0.4964060    0.00000       Uiso       1.00
       H50          H  0.7432030  2.0569339  0.5095590    0.00000       Uiso       1.00
       H51          H  0.6127800  1.9438170  0.4963080    0.00000       Uiso       1.00
       H52          H  0.4569160  2.0023320  0.6407090    0.00000       Uiso       1.00
       H53          H  0.5366040  2.0360351  0.6427010    0.00000       Uiso       1.00
       H54          H  0.5482370  2.1459892  0.3579220    0.00000       Uiso       1.00
       H55          H  0.4688330  2.1132510  0.3580470    0.00000       Uiso       1.00
       H56          H  0.7062590  2.0845349  0.6550780    0.00000       Uiso       1.00
       H57          H  0.6718580  2.1302850  0.6565350    0.00000       Uiso       1.00
       H58          H  0.5663220  2.0351870  0.3464490    0.00000       Uiso       1.00
       H59          H  0.5994910  1.9887390  0.3467990    0.00000       Uiso       1.00
       H60          H  0.6748660  2.1608369  0.3451840    0.00000       Uiso       1.00
       H61          H  0.7224760  2.2404761  0.3417870    0.00000       Uiso       1.00
       H62          H  0.6275520  2.2541790  0.6451760    0.00000       Uiso       1.00
       H63          H  0.5807180  2.1742251  0.6498500    0.00000       Uiso       1.00
       H64          H  0.7683471  2.2988722  0.4860660    0.00000       Uiso       1.00
       H65          H  0.7875440  2.4292231  0.5010390    0.00000       Uiso       1.00
       H66          H  0.6566780  2.3184910  0.5077180    0.00000       Uiso       1.00
       H67          H  0.3525530  2.1125131  0.4976470    0.00000       Uiso       1.00
       H68          H  0.7304381  2.4442730  0.5124250    0.00000       Uiso       1.00
       H69          H  0.3241020  2.1543760  0.4912260    0.00000       Uiso       1.00
       H70          H  0.2863460  2.1962152  0.4912360    0.00000       Uiso       1.00
       H71          H  0.1610110  2.0752032  0.4871180    0.00000       Uiso       1.00
       H72          H  0.1987240  2.0333190  0.4874360    0.00000       Uiso       1.00
       H73          H  0.7021630  2.4869740  0.4980010    0.00000       Uiso       1.00
       H74          H  0.6645041  2.5289812  0.4972120    0.00000       Uiso       1.00
       H75          H  0.5393581  2.4083703  0.5352590    0.00000       Uiso       1.00
       H76          H  0.5770541  2.3664012  0.5355970    0.00000       Uiso       1.00
       H77          H  0.1327270  2.1183209  0.4894070    0.00000       Uiso       1.00
       H78          H  0.5109920  2.4500029  0.4930770    0.00000       Uiso       1.00
       H79          H  0.0672110  0.0625280  0.0056520    0.00000       Uiso       1.00
       H80          H  0.1209870 -0.0100400  0.0092520    0.00000       Uiso       1.00
       H81          H  0.2514070  0.1030850 -0.0037800    0.00000       Uiso       1.00
       H82          H  0.1390060  0.1201810 -0.0020800    0.00000       Uiso       1.00
       H83          H  0.2645270  0.1752770 -0.0066200    0.00000       Uiso       1.00
       H84          H  0.2979260  0.0118170 -0.1535400    0.00000       Uiso       1.00
       H85          H  0.2647230  0.0582190 -0.1532400    0.00000       Uiso       1.00
       H86          H  0.4073600  0.0448100  0.1387390    0.00000       Uiso       1.00
       H87          H  0.5835440  0.0601510  0.0016040    0.00000       Uiso       1.00
       H88          H  0.4719860  0.0791100  0.0063050    0.00000       Uiso       1.00
       H89          H  0.5979170  0.1325720  0.0115440    0.00000       Uiso       1.00
       H90          H  0.6366430  0.2032460  0.0885200    0.00000       Uiso       1.00
       H91          H  0.6779970  0.2830480  0.0896010    0.00000       Uiso       1.00
       H92          H  0.5620260  0.2860510 -0.0730300    0.00000       Uiso       1.00
       H93          H  0.5207020  0.2062630 -0.0734900    0.00000       Uiso       1.00
       H94          H  0.3024950  0.2449790  0.0659760    0.00000       Uiso       1.00
       H95          H  0.3438130  0.3247010  0.0674800    0.00000       Uiso       1.00
       H96          H  0.2274070  0.3279630 -0.0870100    0.00000       Uiso       1.00
       H97          H  0.1860290  0.2481640 -0.0886500    0.00000       Uiso       1.00
       H98          H  0.2667410  0.3988560 -0.0080700    0.00000       Uiso       1.00
       H99          H  0.5999790  0.3560240  0.0019710    0.00000       Uiso       1.00
      H100          H  0.3928040  0.4520860 -0.0011100    0.00000       Uiso       1.00
      H101          H  0.4113990  0.5829000 -0.0068200    0.00000       Uiso       1.00
      H102          H  0.2813500  0.4712720 -0.0011700    0.00000       Uiso       1.00
      H103          H  0.7255010  0.4107520 -0.0001700    0.00000       Uiso       1.00
      H104          H  0.7440740  0.5411580 -0.0125900    0.00000       Uiso       1.00
      H105          H  0.6134260  0.4283580 -0.0015700    0.00000       Uiso       1.00
      H106          H  0.4574590  0.4860800 -0.1373100    0.00000       Uiso       1.00
      H107          H  0.5372410  0.5200140 -0.1410800    0.00000       Uiso       1.00
      H108          H  0.5489320  0.6308730  0.1375500    0.00000       Uiso       1.00
      H109          H  0.4696580  0.5981380  0.1376800    0.00000       Uiso       1.00
      H110          H  0.7075920  0.5696130 -0.1543400    0.00000       Uiso       1.00
      H111          H  0.6731720  0.6153640 -0.1546700    0.00000       Uiso       1.00
      H112          H  0.5671630  0.5195520  0.1515490    0.00000       Uiso       1.00
      H113          H  0.6001730  0.4728850  0.1487650    0.00000       Uiso       1.00
      H114          H  0.6744950  0.6450641  0.1603940    0.00000       Uiso       1.00
      H115          H  0.7219750  0.7247790  0.1661670    0.00000       Uiso       1.00
      H116          H  0.6287780  0.7386350 -0.1477900    0.00000       Uiso       1.00
      H117          H  0.5820840  0.6586410 -0.1544800    0.00000       Uiso       1.00
      H118          H  0.7685590  0.7826460  0.0158250    0.00000       Uiso       1.00
      H119          H  0.7885380  0.9133021  0.0009700    0.00000       Uiso       1.00
      H120          H  0.6573090  0.8029750 -0.0020500    0.00000       Uiso       1.00
      H121          H  0.3532990  0.5969400 -0.0048400    0.00000       Uiso       1.00
      H122          H  0.7315640  0.9287791 -0.0087300    0.00000       Uiso       1.00
      H123          H  0.3249360  0.6386070  0.0352750    0.00000       Uiso       1.00
      H124          H  0.2872910  0.6806200  0.0358040    0.00000       Uiso       1.00
      H125          H  0.1621430  0.5600940 -0.0022500    0.00000       Uiso       1.00
      H126          H  0.1997650  0.5180570 -0.0032000    0.00000       Uiso       1.00
      H127          H  0.7033041  0.9718481 -0.0123500    0.00000       Uiso       1.00
      H128          H  0.6655610  1.0137011 -0.0120400    0.00000       Uiso       1.00
      H129          H  0.5402060  0.8925780 -0.0083500    0.00000       Uiso       1.00
      H130          H  0.5780270  0.8507940 -0.0083700    0.00000       Uiso       1.00
      H131          H  0.1338440  0.6027580  0.0115350    0.00000       Uiso       1.00
      H132          H  0.5116740  0.9344060 -0.0015200    0.00000       Uiso       1.00
      H133          H  0.1578730  0.9623060  0.1544530    0.00000       Uiso       1.00
      H134          H  0.1923390  0.9166220  0.1561850    0.00000       Uiso       1.00
      H135          H  0.1893710  0.8861110 -0.1547000    0.00000       Uiso       1.00
      H136          H  0.1417410  0.8064671 -0.1576400    0.00000       Uiso       1.00
      H137          H  0.2367580  0.7928540  0.1455720    0.00000       Uiso       1.00
      H138          H  0.2836300  0.8728200  0.1496810    0.00000       Uiso       1.00
      H139          H  0.3159700  0.9009060 -0.1424000    0.00000       Uiso       1.00
      H140          H  0.3953860  0.9337471 -0.1432000    0.00000       Uiso       1.00
      H141          H  0.3276840  1.0110420  0.1413890    0.00000       Uiso       1.00
      H142          H  0.0959250  0.7482060 -0.0123200    0.00000       Uiso       1.00
      H143          H  0.0766540  0.6178180  0.0015490    0.00000       Uiso       1.00
      H144          H  0.2075510  0.7285100  0.0081080    0.00000       Uiso       1.00
      H145          H  0.4535420  0.9483320  0.0016470    0.00000       Uiso       1.00
      H146          H  0.0231940  0.6898420 -0.0190200    0.00000       Uiso       1.00
      H147          H  0.8415110  0.8408350  0.0186320    0.00000       Uiso       1.00
      H148          H  0.9129751  0.8702110  0.0141070    0.00000       Uiso       1.00
      H149          H  0.9925790  0.9086730  0.0142090    0.00000       Uiso       1.00
      H150          H  0.9955210  1.0333720  0.0068380    0.00000       Uiso       1.00
      H151          H  0.9158590  0.9948840  0.0066660    0.00000       Uiso       1.00
      H152          H  0.9519020  0.6605100 -0.0129600    0.00000       Uiso       1.00
      H153          H  0.8723220  0.6221130 -0.0148700    0.00000       Uiso       1.00
      H154          H  0.8692120  0.4973540 -0.0042900    0.00000       Uiso       1.00
      H155          H  0.9488840  0.5357650 -0.0023800    0.00000       Uiso       1.00
      H156          H  0.7974150  0.4682430 -0.0069600    0.00000       Uiso       1.00
      C157          C  1.8318629 -1.1338300  0.0134370    0.00000       Uiso       1.00
      C158          C  1.9070170 -1.0708600  0.0105490    0.00000       Uiso       1.00
      C159          C  1.9304681 -1.0937001  0.0127010    0.00000       Uiso       1.00
      C160          C  1.9760741 -1.0717300  0.0127340    0.00000       Uiso       1.00
      C161          C  2.0014420 -1.0256101  0.0106320    0.00000       Uiso       1.00
      C162          C  1.9779991 -1.0027300  0.0086230    0.00000       Uiso       1.00
      C163          C  1.9323690 -1.0247101  0.0085490    0.00000       Uiso       1.00
      C164          C  2.0767221 -0.9629300  0.0073720    0.00000       Uiso       1.00
      C165          C  2.1238320 -0.9472500  0.0048480    0.00000       Uiso       1.00
      C166          C  2.1424410 -0.9741700  0.0071200    0.00000       Uiso       1.00
      C167          C  2.1886868 -0.9571900  0.0022400    0.00000       Uiso       1.00
      C168          C  2.2156050 -0.9106801 -0.0026400    0.00000       Uiso       1.00
      C169          C  2.1987891 -0.8823500 -0.0041100    0.00000       Uiso       1.00
      C170          C  2.1529140 -0.9017400 -0.0006300    0.00000       Uiso       1.00
      C171          C  2.2293420 -0.8351100 -0.0085700    0.00000       Uiso       1.00
      C172          C  2.2078731 -0.9851701  0.0004870    0.00000       Uiso       1.00
      C173          C  2.1885741 -1.0264300  0.0844470    0.00000       Uiso       1.00
      C174          C  2.2080100 -1.0523100  0.0854090    0.00000       Uiso       1.00
      C175          C  2.2478170 -1.0395600  0.0012950    0.00000       Uiso       1.00
      C176          C  2.2671530 -0.9990800 -0.0835000    0.00000       Uiso       1.00
      C177          C  2.2481370 -0.9728800 -0.0836800    0.00000       Uiso       1.00
      C178          C  2.2402050 -1.1141100 -0.0015400    0.00000       Uiso       1.00
      C179          C  2.3150842 -1.0469500  0.0001180    0.00000       Uiso       1.00
      C180          C  2.1996732 -1.1344500 -0.0862000    0.00000       Uiso       1.00
      C181          C  2.1728702 -1.1796000 -0.0884300    0.00000       Uiso       1.00
      C182          C  2.1844511 -1.2082901 -0.0056900    0.00000       Uiso       1.00
      C183          C  2.2259002 -1.1871500  0.0770850    0.00000       Uiso       1.00
      C184          C  2.2524281 -1.1419101  0.0798110    0.00000       Uiso       1.00
      C185          C  2.3359630 -1.0675601 -0.0774800    0.00000       Uiso       1.00
      C186          C  2.3811660 -1.0486901 -0.0785700    0.00000       Uiso       1.00
      C187          C  2.4094141 -1.0074900 -0.0011200    0.00000       Uiso       1.00
      C188          C  2.3877840 -0.9867600  0.0742660    0.00000       Uiso       1.00
      C189          C  2.3425150 -1.0059500  0.0758350    0.00000       Uiso       1.00
      C190          C  2.1555860 -1.2553600 -0.0031100    0.00000       Uiso       1.00
      C191          C  2.4565601 -0.9887300  0.0033860    0.00000       Uiso       1.00
      C192          C  2.1091280 -1.2742901 -0.0087100    0.00000       Uiso       1.00
      C193          C  2.0801051 -1.3193500 -0.0065800    0.00000       Uiso       1.00
      C194          C  2.0988293 -1.3464100  0.0004710    0.00000       Uiso       1.00
      C195          C  2.1442261 -1.3306000  0.0061100    0.00000       Uiso       1.00
      C196          C  2.1717749 -1.2852000  0.0052440    0.00000       Uiso       1.00
      C197          C  2.4758060 -1.0159301  0.0015880    0.00000       Uiso       1.00
      C198          C  2.5208991 -0.9994800  0.0003830    0.00000       Uiso       1.00
      C199          C  2.5477452 -0.9536300  0.0027670    0.00000       Uiso       1.00
      C200          C  2.5315711 -0.9243300  0.0058800    0.00000       Uiso       1.00
      C201          C  2.4860930 -0.9426000  0.0067520    0.00000       Uiso       1.00
      C202          C  2.0329280 -1.3354000 -0.0116200    0.00000       Uiso       1.00
      C203          C  1.9578230 -1.3984400 -0.0079200    0.00000       Uiso       1.00
      C204          C  1.9343971 -1.3755800 -0.0113000    0.00000       Uiso       1.00
      C205          C  1.8887919 -1.3975101 -0.0123500    0.00000       Uiso       1.00
      C206          C  1.8633891 -1.4436301 -0.0100900    0.00000       Uiso       1.00
      C207          C  1.8867910 -1.4665401 -0.0064900    0.00000       Uiso       1.00
      C208          C  1.9324310 -1.4445900 -0.0053900    0.00000       Uiso       1.00
      C209          C  1.7880161 -1.5062100 -0.0089600    0.00000       Uiso       1.00
      C210          C  2.5628741 -0.8772500  0.0072070    0.00000       Uiso       1.00
      C211          C  2.2403841 -0.7607200 -0.0120700    0.00000       Uiso       1.00
      C212          C  2.5748711 -0.8024100  0.0062650    0.00000       Uiso       1.00
      C213          C  2.6195409 -0.7790800  0.0518040    0.00000       Uiso       1.00
      C214          C  2.6431990 -0.7334700  0.0527610    0.00000       Uiso       1.00
      C215          C  2.6238880 -0.7081800  0.0089190    0.00000       Uiso       1.00
      C216          C  2.5791709 -0.7315600 -0.0362000    0.00000       Uiso       1.00
      C217          C  2.5555179 -0.7771500 -0.0369700    0.00000       Uiso       1.00
      C218          C  2.2852311 -0.7373800  0.0311430    0.00000       Uiso       1.00
      C219          C  2.3088889 -0.6918100  0.0325290    0.00000       Uiso       1.00
      C220          C  2.2894521 -0.6664600 -0.0082400    0.00000       Uiso       1.00
      C221          C  2.2446330 -0.6897300 -0.0520200    0.00000       Uiso       1.00
      C222          C  2.2209551 -0.7353600 -0.0534400    0.00000       Uiso       1.00
      C223          C  2.3017631 -0.5914600 -0.0055200    0.00000       Uiso       1.00
      C224          C  2.3332319 -0.5444000 -0.0037000    0.00000       Uiso       1.00
      C225          C  2.6351399 -0.6336800  0.0042380    0.00000       Uiso       1.00
      C226          C  2.6658421 -0.5864600  0.0000630    0.00000       Uiso       1.00
      C227          C  2.3787110 -0.5262001 -0.0033400    0.00000       Uiso       1.00
      C228          C  2.4083140 -0.4800600 -0.0031800    0.00000       Uiso       1.00
      C229          C  2.3891060 -0.4528200 -0.0041600    0.00000       Uiso       1.00
      C230          C  2.3440411 -0.4692000 -0.0015700    0.00000       Uiso       1.00
      C231          C  2.3171279 -0.5150400 -0.0020900    0.00000       Uiso       1.00
      C232          C  2.7117100 -0.5672300 -0.0023400    0.00000       Uiso       1.00
      C233          C  2.7409291 -0.5217500 -0.0075900    0.00000       Uiso       1.00
      C234          C  2.7224810 -0.4946900 -0.0106700    0.00000       Uiso       1.00
      C235          C  2.6762590 -0.5115000 -0.0062700    0.00000       Uiso       1.00
      C236          C  2.6492062 -0.5579900 -0.0020800    0.00000       Uiso       1.00
      C237          C  2.4554791 -0.4612300 -0.0002600    0.00000       Uiso       1.00
      C238          C  2.6572101 -0.4833900 -0.0032900    0.00000       Uiso       1.00
      C239          C  2.4770951 -0.4821400 -0.0743800    0.00000       Uiso       1.00
      C240          C  2.5223861 -0.4629100 -0.0763400    0.00000       Uiso       1.00
      C241          C  2.5498629 -0.4217100 -0.0020200    0.00000       Uiso       1.00
      C242          C  2.5290010 -0.4008400  0.0736690    0.00000       Uiso       1.00
      C243          C  2.4838130 -0.4196700  0.0744680    0.00000       Uiso       1.00
      C244          C  2.6767480 -0.4418300 -0.0851100    0.00000       Uiso       1.00
      C245          C  2.6573231 -0.4159400 -0.0853900    0.00000       Uiso       1.00
      C246          C  2.6173010 -0.4289500 -0.0024300    0.00000       Uiso       1.00
      C247          C  2.5979011 -0.4695700  0.0813010    0.00000       Uiso       1.00
      C248          C  2.6168559 -0.4958300  0.0804280    0.00000       Uiso       1.00
      C249          C  2.6246481 -0.3545300  0.0017130    0.00000       Uiso       1.00
      C250          C  2.6645880 -0.3342900  0.0902620    0.00000       Uiso       1.00
      C251          C  2.6912591 -0.2891400  0.0942650    0.00000       Uiso       1.00
      C252          C  2.6801331 -0.2603900  0.0093710    0.00000       Uiso       1.00
      C253          C  2.6392310 -0.2814300 -0.0774000    0.00000       Uiso       1.00
      C254          C  2.6128511 -0.3266800 -0.0818000    0.00000       Uiso       1.00
      C255          C  2.7091010 -0.2133800  0.0077270    0.00000       Uiso       1.00
      C256          C  2.7555521 -0.1946900  0.0125730    0.00000       Uiso       1.00
      C257          C  2.7847359 -0.1496700  0.0096590    0.00000       Uiso       1.00
      C258          C  2.7662048 -0.1224400  0.0029260    0.00000       Uiso       1.00
      C259          C  2.7208490 -0.1380200 -0.0015000    0.00000       Uiso       1.00
      C260          C  2.6930852 -0.1833900  0.0001270    0.00000       Uiso       1.00
      C261          C  2.3280911 -0.4380600  0.0014580    0.00000       Uiso       1.00
      C262          C  2.7058752 -0.1061100 -0.0072900    0.00000       Uiso       1.00
      C263          C  2.2656240 -0.4256900  0.0155040    0.00000       Uiso       1.00
      C264          C  2.6438911 -0.0927200 -0.0100900    0.00000       Uiso       1.00
      C265          C  2.2889211 -0.3795000  0.0269100    0.00000       Uiso       1.00
      C266          C  2.2674680 -0.3553800  0.0274410    0.00000       Uiso       1.00
      C267          C  2.2214739 -0.3756100  0.0168530    0.00000       Uiso       1.00
      C268          C  2.1981561 -0.4218200  0.0066300    0.00000       Uiso       1.00
      C269          C  2.2196109 -0.4459600  0.0061870    0.00000       Uiso       1.00
      C270          C  2.6672130 -0.0464200 -0.0115400    0.00000       Uiso       1.00
      C271          C  2.6456571 -0.0223700 -0.0114600    0.00000       Uiso       1.00
      C272          C  2.5995629 -0.0428200 -0.0099500    0.00000       Uiso       1.00
      C273          C  2.5762801 -0.0891100 -0.0093800    0.00000       Uiso       1.00
      C274          C  2.5978210 -0.1131400 -0.0094700    0.00000       Uiso       1.00
      C275          C  2.1594479 -0.3623300  0.0120340    0.00000       Uiso       1.00
      C276          C  2.5369201 -0.0305700 -0.0032200    0.00000       Uiso       1.00
      C277          C -0.1687100  1.3825121  0.4868210    0.00000       Uiso       1.00
      C278          C -0.0936500  1.4455740  0.4904470    0.00000       Uiso       1.00
      C279          C -0.0702200  1.4227090  0.4873110    0.00000       Uiso       1.00
      C280          C -0.0246300  1.4446290  0.4864240    0.00000       Uiso       1.00
      C281          C  0.0007810  1.4907460  0.4886250    0.00000       Uiso       1.00
      C282          C -0.0226100  1.5136660  0.4917710    0.00000       Uiso       1.00
      C283          C -0.0682500  1.4917281  0.4926880    0.00000       Uiso       1.00
      C284          C  0.0761650  1.5532790  0.4899810    0.00000       Uiso       1.00
      C285          C  0.1232360  1.5687611  0.4917350    0.00000       Uiso       1.00
      C286          C  0.1416810  1.5416920  0.4890300    0.00000       Uiso       1.00
      C287          C  0.1879040  1.5585070  0.4935020    0.00000       Uiso       1.00
      C288          C  0.2149510  1.6049950  0.4977340    0.00000       Uiso       1.00
      C289          C  0.1983090  1.6334641  0.4996760    0.00000       Uiso       1.00
      C290          C  0.1524510  1.6142420  0.4969460    0.00000       Uiso       1.00
      C291          C  0.2289980  1.6806781  0.5039040    0.00000       Uiso       1.00
      C292          C  0.2069970  1.5304359  0.4962870    0.00000       Uiso       1.00
      C293          C  0.1875210  1.4889030  0.4143160    0.00000       Uiso       1.00
      C294          C  0.2070131  1.4630641  0.4139050    0.00000       Uiso       1.00
      C295          C  0.2470210  1.4760920  0.4969710    0.00000       Uiso       1.00
      C296          C  0.2664060  1.5167310  0.5805570    0.00000       Uiso       1.00
      C297          C  0.2473930  1.5429341  0.5797630    0.00000       Uiso       1.00
      C298          C  0.2396400  1.4016430  0.5013090    0.00000       Uiso       1.00
      C299          C  0.3144310  1.4688081  0.4981050    0.00000       Uiso       1.00
      C300          C  0.1996020  1.3814110  0.5892250    0.00000       Uiso       1.00
      C301          C  0.1729170  1.3362581  0.5932210    0.00000       Uiso       1.00
      C302          C  0.1841080  1.3074790  0.5088960    0.00000       Uiso       1.00
      C303          C  0.2251190  1.3285210  0.4228700    0.00000       Uiso       1.00
      C304          C  0.2515140  1.3737661  0.4184260    0.00000       Uiso       1.00
      C305          C  0.3352540  1.4479251  0.5740010    0.00000       Uiso       1.00
      C306          C  0.3804380  1.4667120  0.5748650    0.00000       Uiso       1.00
      C307          C  0.4087940  1.5082620  0.5000910    0.00000       Uiso       1.00
      C308          C  0.3872260  1.5292330  0.4260940    0.00000       Uiso       1.00
      C309          C  0.3419410  1.5100150  0.4239430    0.00000       Uiso       1.00
      C310          C  0.1551210  1.2604641  0.5069130    0.00000       Uiso       1.00
      C311          C  0.4559430  1.5270270  0.4969330    0.00000       Uiso       1.00
      C312          C  0.1086620  1.2417481  0.5113770    0.00000       Uiso       1.00
      C313          C  0.0794830  1.1967291  0.5081400    0.00000       Uiso       1.00
      C314          C  0.0980420  1.1695150  0.5014150    0.00000       Uiso       1.00
      C315          C  0.1434110  1.1850981  0.4972440    0.00000       Uiso       1.00
      C316          C  0.1711440  1.2304760  0.4991950    0.00000       Uiso       1.00
      C317          C  0.4751150  1.4997561  0.4955390    0.00000       Uiso       1.00
      C318          C  0.5201800  1.5161160  0.4980580    0.00000       Uiso       1.00
      C319          C  0.5471040  1.5619581  0.4978390    0.00000       Uiso       1.00
      C320          C  0.5310280  1.5913430  0.4965230    0.00000       Uiso       1.00
      C321          C  0.4855550  1.5731601  0.4969730    0.00000       Uiso       1.00
      C322          C  0.0323260  1.1808500  0.5116510    0.00000       Uiso       1.00
      C323          C -0.0428600  1.1178399  0.5082240    0.00000       Uiso       1.00
      C324          C -0.0663300  1.1406641  0.5105750    0.00000       Uiso       1.00
      C325          C -0.1119400  1.1186891  0.5108550    0.00000       Uiso       1.00
      C326          C -0.1372900  1.0725640  0.5087970    0.00000       Uiso       1.00
      C327          C -0.1138400  1.0497020  0.5064720    0.00000       Uiso       1.00
      C328          C -0.0682100  1.0716879  0.5061710    0.00000       Uiso       1.00
      C329          C -0.2125400  1.0098600  0.5061070    0.00000       Uiso       1.00
      C330          C  0.5624990  1.6384001  0.4948800    0.00000       Uiso       1.00
      C331          C  0.2402420  1.7551371  0.5090260    0.00000       Uiso       1.00
      C332          C  0.5748110  1.7133911  0.4916240    0.00000       Uiso       1.00
      C333          C  0.6195070  1.7366310  0.4460800    0.00000       Uiso       1.00
      C334          C  0.6431950  1.7822610  0.4443520    0.00000       Uiso       1.00
      C335          C  0.6238921  1.8076471  0.4871550    0.00000       Uiso       1.00
      C336          C  0.5791610  1.7843390  0.5320060    0.00000       Uiso       1.00
      C337          C  0.5554931  1.7387651  0.5336780    0.00000       Uiso       1.00
      C338          C  0.2850140  1.7784780  0.4647060    0.00000       Uiso       1.00
      C339          C  0.3086990  1.8240610  0.4637800    0.00000       Uiso       1.00
      C340          C  0.2893270  1.8493631  0.5061350    0.00000       Uiso       1.00
      C341          C  0.2445910  1.8260740  0.5508030    0.00000       Uiso       1.00
      C342          C  0.2208990  1.7804590  0.5519100    0.00000       Uiso       1.00
      C343          C  0.3013880  1.9242071  0.5073990    0.00000       Uiso       1.00
      C344          C  0.3326970  1.9712870  0.5061340    0.00000       Uiso       1.00
      C345          C  0.6348830  1.8820120  0.4907140    0.00000       Uiso       1.00
      C346          C  0.6654030  1.9292570  0.4953160    0.00000       Uiso       1.00
      C347          C  0.3781751  1.9895910  0.5076570    0.00000       Uiso       1.00
      C348          C  0.4076840  2.0357320  0.5045720    0.00000       Uiso       1.00
      C349          C  0.3883930  2.0628860  0.5023190    0.00000       Uiso       1.00
      C350          C  0.3433030  2.0464029  0.5002730    0.00000       Uiso       1.00
      C351          C  0.3164800  2.0005500  0.5024450    0.00000       Uiso       1.00
      C352          C  0.7112800  1.9486421  0.4983900    0.00000       Uiso       1.00
      C353          C  0.7403480  1.9941530  0.5041000    0.00000       Uiso       1.00
      C354          C  0.7217400  2.0210671  0.5071160    0.00000       Uiso       1.00
      C355          C  0.6754900  2.0040860  0.5024090    0.00000       Uiso       1.00
      C356          C  0.6485820  1.9575801  0.4972820    0.00000       Uiso       1.00
      C357          C  0.4548360  2.0545480  0.5004960    0.00000       Uiso       1.00
      C358          C  0.6563050  2.0320671  0.5007770    0.00000       Uiso       1.00
      C359          C  0.4764900  2.0338640  0.5760120    0.00000       Uiso       1.00
      C360          C  0.5217590  2.0530071  0.5771260    0.00000       Uiso       1.00
      C361          C  0.5491691  2.0939403  0.5009010    0.00000       Uiso       1.00
      C362          C  0.5282640  2.1145241  0.4233150    0.00000       Uiso       1.00
      C363          C  0.4830689  2.0957170  0.4227540    0.00000       Uiso       1.00
      C364          C  0.6755930  2.0733101  0.5848810    0.00000       Uiso       1.00
      C365          C  0.6561961  2.0992281  0.5857090    0.00000       Uiso       1.00
      C366          C  0.6164120  2.0865109  0.5014750    0.00000       Uiso       1.00
      C367          C  0.5970730  2.0460510  0.4165930    0.00000       Uiso       1.00
      C368          C  0.6160690  2.0198290  0.4164450    0.00000       Uiso       1.00
      C369          C  0.6240669  2.1610959  0.4984510    0.00000       Uiso       1.00
      C370          C  0.6645720  2.1814139  0.4136230    0.00000       Uiso       1.00
      C371          C  0.6913691  2.2265732  0.4111270    0.00000       Uiso       1.00
      C372          C  0.6798071  2.2552891  0.4936750    0.00000       Uiso       1.00
      C373          C  0.6383970  2.2341640  0.5767180    0.00000       Uiso       1.00
      C374          C  0.6118820  2.1889281  0.5797510    0.00000       Uiso       1.00
      C375          C  0.7086540  2.3023810  0.4959230    0.00000       Uiso       1.00
      C376          C  0.7551130  2.3213370  0.4899540    0.00000       Uiso       1.00
      C377          C  0.7841230  2.3664069  0.4922170    0.00000       Uiso       1.00
      C378          C  0.7653880  2.3934491  0.4997970    0.00000       Uiso       1.00
      C379          C  0.7200000  2.3776131  0.5057590    0.00000       Uiso       1.00
      C380          C  0.6924509  2.3321989  0.5046050    0.00000       Uiso       1.00
      C381          C  0.3272960  2.0774901  0.4961340    0.00000       Uiso       1.00
      C382          C  0.7048240  2.4093592  0.5122990    0.00000       Uiso       1.00
      C383          C  0.2647160  2.0898001  0.4894380    0.00000       Uiso       1.00
      C384          C  0.6428361  2.4226592  0.5169420    0.00000       Uiso       1.00
      C385          C  0.2880250  2.1360972  0.4901120    0.00000       Uiso       1.00
      C386          C  0.2665080  2.1601491  0.4900460    0.00000       Uiso       1.00
      C387          C  0.2204290  2.1397669  0.4893010    0.00000       Uiso       1.00
      C388          C  0.1971010  2.0934651  0.4878950    0.00000       Uiso       1.00
      C389          C  0.2186300  2.0693939  0.4879800    0.00000       Uiso       1.00
      C390          C  0.6661490  2.4688799  0.5068721    0.00000       Uiso       1.00
      C391          C  0.6446710  2.4929941  0.5065110    0.00000       Uiso       1.00
      C392          C  0.5986530  2.4726970  0.5157350    0.00000       Uiso       1.00
      C393          C  0.5753730  2.4264989  0.5269720    0.00000       Uiso       1.00
      C394          C  0.5968460  2.4024041  0.5274240    0.00000       Uiso       1.00
      C395          C  0.1584230  2.1532001  0.4913930    0.00000       Uiso       1.00
      C396          C  0.5361570  2.4849958  0.5006500    0.00000       Uiso       1.00
      N397          N  1.8604221 -1.0919299  0.0098680    0.00000       Uiso       1.00
      N398          N  2.0480301 -1.0047801  0.0102250    0.00000       Uiso       1.00
      N399          N  2.2677910 -1.0668601  0.0011240    0.00000       Uiso       1.00
      N400          N  2.0044391 -1.3773201 -0.0065200    0.00000       Uiso       1.00
      N401          N  1.8168050 -1.4643900 -0.0110300    0.00000       Uiso       1.00
      N402          N  2.2151411 -0.8072700 -0.0136900    0.00000       Uiso       1.00
      N403          N  2.5493491 -0.8488900  0.0028820    0.00000       Uiso       1.00
      N404          N  2.3151090 -0.6199800 -0.0042400    0.00000       Uiso       1.00
      N405          N  2.6491921 -0.6616300  0.0099320    0.00000       Uiso       1.00
      N406          N  2.5971739 -0.4017800 -0.0023600    0.00000       Uiso       1.00
      N407          N  2.2862730 -0.4515400  0.0114510    0.00000       Uiso       1.00
      N408          N  2.6641591 -0.1189100 -0.0086100    0.00000       Uiso       1.00
      N409          N  2.2012050 -0.3494000  0.0157370    0.00000       Uiso       1.00
      N410          N  2.5788150 -0.0170300 -0.0078800    0.00000       Uiso       1.00
      N411          N -0.1402500  1.4244500  0.4919010    0.00000       Uiso       1.00
      N412          N  0.0473550  1.5114701  0.4880500    0.00000       Uiso       1.00
      N413          N  0.2671270  1.4488909  0.4973280    0.00000       Uiso       1.00
      N414          N  0.0037580  1.1389430  0.5074930    0.00000       Uiso       1.00
      N415          N -0.1838800  1.0517111  0.5087940    0.00000       Uiso       1.00
      N416          N  0.2149250  1.7086030  0.5100770    0.00000       Uiso       1.00
      N417          N  0.5491530  1.6669121  0.4959990    0.00000       Uiso       1.00
      N418          N  0.3148960  1.8958369  0.5027390    0.00000       Uiso       1.00
      N419          N  0.6491200  1.8542020  0.4853030    0.00000       Uiso       1.00
      N420          N  0.5964640  2.1138389  0.5013780    0.00000       Uiso       1.00
      N421          N  0.2854100  2.0639732  0.4914860    0.00000       Uiso       1.00
      N422          N  0.6630790  2.3964410  0.5156840    0.00000       Uiso       1.00
      N423          N  0.2001480  2.1659701  0.4906780    0.00000       Uiso       1.00
      N424          N  0.5779639  2.4985049  0.5117400    0.00000       Uiso       1.00
