data_SIOC-COF-4-AB
_audit_creation_date              0000-00-00
_audit_creation_method            'LanYouShi'
_symmetry_space_group_name_H-M    'P1'
_cell_length_a                    42.5499992
_cell_length_b                    42.5499992
_cell_length_c                    8.1599998
_cell_angle_alpha                 90.0000000
_cell_angle_beta                  90.0000000
_cell_angle_gamma                 120.0000000
loop_
_atom_site_label
_atom_site_type_symbol
_atom_site_fract_x
_atom_site_fract_y
_atom_site_fract_z
_atom_site_U_iso_or_equiv
_atom_site_adp_type
_atom_site_occupancy
        H1          H  0.5185541  3.0819662  0.5293050    0.00000       Uiso       1.00
        H2          H  0.2015609  2.8077159  0.4846930    0.00000       Uiso       1.00
        H3          H  0.2259950  2.7731931  0.5397460    0.00000       Uiso       1.00
        H4          H  0.2565290  2.7382441  0.5355020    0.00000       Uiso       1.00
        H5          H  0.3583370  2.8365362  0.4193860    0.00000       Uiso       1.00
        H6          H  0.3270230  2.8710520  0.4274530    0.00000       Uiso       1.00
        H7          H  0.5460081  3.0519490  0.5971530    0.00000       Uiso       1.00
        H8          H  0.5771070  3.0174122  0.5936370    0.00000       Uiso       1.00
        H9          H  0.6735180  3.1115141  0.3963210    0.00000       Uiso       1.00
       H10          H  0.6417730  3.1456981  0.4023170    0.00000       Uiso       1.00
       H11          H  0.2814241  2.7112350  0.4072460    0.00000       Uiso       1.00
       H12          H  0.3129810  2.6769850  0.4028440    0.00000       Uiso       1.00
       H13          H  0.4133500  2.7736051  0.5358760    0.00000       Uiso       1.00
       H14          H  0.3825420  2.8083560  0.5424640    0.00000       Uiso       1.00
       H15          H  0.5979220  2.9878399  0.4365600    0.00000       Uiso       1.00
       H16          H  0.6289520  2.9528680  0.4349670    0.00000       Uiso       1.00
       H17          H  0.7311100  3.0504861  0.5360621    0.00000       Uiso       1.00
       H18          H  0.7009390  3.0858200  0.5399090    0.00000       Uiso       1.00
       H19          H  0.4382900  2.7418349  0.4421090    0.00000       Uiso       1.00
       H20          H  0.7548009  3.0160499  0.4901440    0.00000       Uiso       1.00
       H21          H  0.3797880  2.6386971  0.4842510    0.00000       Uiso       1.00
       H22          H  0.4719400  2.6233070  0.5169890    0.00000       Uiso       1.00
       H23          H  0.4873000  2.7306340  0.4551700    0.00000       Uiso       1.00
       H24          H  0.6927080  2.9124870  0.4909440    0.00000       Uiso       1.00
       H25          H  0.7834680  2.8938890  0.5006860    0.00000       Uiso       1.00
       H26          H  0.8017430  3.0024991  0.4908080    0.00000       Uiso       1.00
       H27          H  0.3679870  2.5794191  0.5331410    0.00000       Uiso       1.00
       H28          H  0.5249050  2.6503510  0.3601480    0.00000       Uiso       1.00
       H29          H  0.5908660  2.6783299  0.3586370    0.00000       Uiso       1.00
       H30          H  0.6001810  2.7704561  0.6287270    0.00000       Uiso       1.00
       H31          H  0.5344059  2.7432289  0.6259860    0.00000       Uiso       1.00
       H32          H  0.6684110  2.8594229  0.3433420    0.00000       Uiso       1.00
       H33          H  0.6285040  2.7934961  0.3407680    0.00000       Uiso       1.00
       H34          H  0.7037060  2.7811720  0.6551490    0.00000       Uiso       1.00
       H35          H  0.7442510  2.8467770  0.6558360    0.00000       Uiso       1.00
       H36          H  0.6155800  2.6784911  0.6513820    0.00000       Uiso       1.00
       H37          H  0.6437970  2.6407361  0.6553701    0.00000       Uiso       1.00
       H38          H  0.7316000  2.7198720  0.3495570    0.00000       Uiso       1.00
       H39          H  0.7024040  2.7568400  0.3432050    0.00000       Uiso       1.00
       H40          H  0.6557220  2.6036749  0.5078440    0.00000       Uiso       1.00
       H41          H  0.7499350  2.5918970  0.4923870    0.00000       Uiso       1.00
       H42          H  0.7626010  2.6985149  0.4968120    0.00000       Uiso       1.00
       H43          H  0.6464090  2.5442860  0.5118460    0.00000       Uiso       1.00
       H44          H  0.3373620  2.5219650  0.6340491    0.00000       Uiso       1.00
       H45          H  0.3033080  2.4563332  0.6452290    0.00000       Uiso       1.00
       H46          H  0.3979920  2.4531722  0.4608220    0.00000       Uiso       1.00
       H47          H  0.4314930  2.5189352  0.4533020    0.00000       Uiso       1.00
       H48          H  0.6161590  2.4865639  0.5638860    0.00000       Uiso       1.00
       H49          H  0.5834770  2.4210331  0.5598020    0.00000       Uiso       1.00
       H50          H  0.6827960  2.4220989  0.4169200    0.00000       Uiso       1.00
       H51          H  0.7150450  2.4878852  0.4239000    0.00000       Uiso       1.00
       H52          H  0.2733450  2.4029160  0.5173800    0.00000       Uiso       1.00
       H53          H  0.2410320  2.3371961  0.5013720    0.00000       Uiso       1.00
       H54          H  0.3417090  2.3367941  0.5729400    0.00000       Uiso       1.00
       H55          H  0.3744690  2.4020991  0.5915840    0.00000       Uiso       1.00
       H56          H  0.5575850  2.3710010  0.4134750    0.00000       Uiso       1.00
       H57          H  0.5236330  2.3050900  0.4129940    0.00000       Uiso       1.00
       H58          H  0.6211529  2.3024480  0.5395840    0.00000       Uiso       1.00
       H59          H  0.6555970  2.3680420  0.5433280    0.00000       Uiso       1.00
       H60          H  0.3104430  2.2799349  0.5227530    0.00000       Uiso       1.00
       H61          H  0.5884560  2.2447100  0.4817280    0.00000       Uiso       1.00
       H62          H  0.2068030  2.2324431  0.5080970    0.00000       Uiso       1.00
       H63          H  0.1945341  2.1260042  0.4934630    0.00000       Uiso       1.00
       H64          H  0.3012240  2.2209520  0.5126030    0.00000       Uiso       1.00
       H65          H  0.4845381  2.2007291  0.4847770    0.00000       Uiso       1.00
       H66          H  0.4693450  2.0928750  0.5150740    0.00000       Uiso       1.00
       H67          H  0.5766920  2.1852551  0.4991740    0.00000       Uiso       1.00
       H68          H  0.1479300  2.1837132  0.4970140    0.00000       Uiso       1.00
       H69          H  0.2260490  2.1054602  0.3452320    0.00000       Uiso       1.00
       H70          H  0.2547070  2.0679510  0.3425200    0.00000       Uiso       1.00
       H71          H  0.3408210  2.1456041  0.6558970    0.00000       Uiso       1.00
       H72          H  0.3127310  2.1835139  0.6589370    0.00000       Uiso       1.00
       H73          H  0.4315720  2.1713400  0.3543620    0.00000       Uiso       1.00
       H74          H  0.3657040  2.1438751  0.3518280    0.00000       Uiso       1.00
       H75          H  0.3556150  2.0552661  0.6522890    0.00000       Uiso       1.00
       H76          H  0.4213640  2.0826039  0.6567050    0.00000       Uiso       1.00
       H77          H  0.2512600  2.0427301  0.6515630    0.00000       Uiso       1.00
       H78          H  0.2114020  1.9770690  0.6539820    0.00000       Uiso       1.00
       H79          H  0.2894670  1.9649340  0.3555830    0.00000       Uiso       1.00
       H80          H  0.3291590  2.0308440  0.3552560    0.00000       Uiso       1.00
       H81          H  0.1733371  1.9302001  0.5012690    0.00000       Uiso       1.00
       H82          H  0.1547979  1.8215089  0.4909890    0.00000       Uiso       1.00
       H83          H  0.2639470  1.9113301  0.4942500    0.00000       Uiso       1.00
       H84          H  0.1124900  1.8826519  0.5003620    0.00000       Uiso       1.00
       H85          H  0.0528419  1.8575879  0.4641480    0.00000       Uiso       1.00
       H86          H -0.0123901  1.8259970  0.4618770    0.00000       Uiso       1.00
       H87          H -0.0138400  1.7235811  0.5328341    0.00000       Uiso       1.00
       H88          H  0.0515840  1.7560551  0.5293670    0.00000       Uiso       1.00
       H89          H  0.0895750  2.1588559  0.4848780    0.00000       Uiso       1.00
       H90          H  0.0248550  2.1274781  0.4833410    0.00000       Uiso       1.00
       H91          H  0.0235220  2.0242321  0.5026910    0.00000       Uiso       1.00
       H92          H  0.0887110  2.0568302  0.5025560    0.00000       Uiso       1.00
       H93          H -0.0292900  2.1010470  0.5012860    0.00000       Uiso       1.00
       H94          H -0.0944100  2.0687308  0.5014730    0.00000       Uiso       1.00
       H95          H -0.0959100  1.9663789  0.4888140    0.00000       Uiso       1.00
       H96          H -0.0310000  1.9976101  0.4869360    0.00000       Uiso       1.00
       H97          H -0.0661800  1.7994970  0.5341970    0.00000       Uiso       1.00
       H98          H -0.1316200  1.7667639  0.5307871    0.00000       Uiso       1.00
       H99          H -0.1322199  1.6656731  0.4598410    0.00000       Uiso       1.00
      H100          H -0.0671199  1.6975250  0.4575320    0.00000       Uiso       1.00
      H101          H -0.1556600  1.9416161  0.5011200    0.00000       Uiso       1.00
      H102          H -0.1911801  1.6403120  0.4864370    0.00000       Uiso       1.00
      H103          H  0.5174500  0.5739270  0.0130830    0.00000       Uiso       1.00
      H104          H  0.2004750  0.3010040 -0.0422600    0.00000       Uiso       1.00
      H105          H  0.2240140  0.2653950 -0.0645300    0.00000       Uiso       1.00
      H106          H  0.2542370  0.2301690 -0.0518900    0.00000       Uiso       1.00
      H107          H  0.3577000  0.3297320  0.0217170    0.00000       Uiso       1.00
      H108          H  0.3266030  0.3645010  0.0059470    0.00000       Uiso       1.00
      H109          H  0.5435890  0.5428570 -0.0669500    0.00000       Uiso       1.00
      H110          H  0.5746350  0.5082240 -0.0678300    0.00000       Uiso       1.00
      H111          H  0.6736020  0.6040700  0.0989870    0.00000       Uiso       1.00
      H112          H  0.6418460  0.6382910  0.0973110    0.00000       Uiso       1.00
      H113          H  0.2823850  0.2063420  0.0937640    0.00000       Uiso       1.00
      H114          H  0.3141170  0.1721580  0.0971160    0.00000       Uiso       1.00
      H115          H  0.4092630  0.2638390 -0.1137300    0.00000       Uiso       1.00
      H116          H  0.3782000  0.2983920 -0.1197500    0.00000       Uiso       1.00
      H117          H  0.5977840  0.4801220  0.0803010    0.00000       Uiso       1.00
      H118          H  0.6290990  0.4454930  0.0771590    0.00000       Uiso       1.00
      H119          H  0.7296990  0.5425500 -0.0499100    0.00000       Uiso       1.00
      H120          H  0.6991010  0.5775730 -0.0496600    0.00000       Uiso       1.00
      H121          H  0.4368950  0.2345350 -0.0320600    0.00000       Uiso       1.00
      H122          H  0.7543091  0.5083890  0.0080650    0.00000       Uiso       1.00
      H123          H  0.3782610  0.1312910  0.0029930    0.00000       Uiso       1.00
      H124          H  0.4701360  0.1153620  0.0141530    0.00000       Uiso       1.00
      H125          H  0.4856900  0.2232680 -0.0212200    0.00000       Uiso       1.00
      H126          H  0.6916250  0.4048610  0.0017430    0.00000       Uiso       1.00
      H127          H  0.7819290  0.3855810 -0.0068900    0.00000       Uiso       1.00
      H128          H  0.8008880  0.4943660  0.0068910    0.00000       Uiso       1.00
      H129          H  0.3660990  0.0718000  0.0209900    0.00000       Uiso       1.00
      H130          H  0.5230120  0.1447930  0.1450770    0.00000       Uiso       1.00
      H131          H  0.5888690  0.1720930  0.1494740    0.00000       Uiso       1.00
      H132          H  0.5995160  0.2605520 -0.1540400    0.00000       Uiso       1.00
      H133          H  0.5338560  0.2336140 -0.1584900    0.00000       Uiso       1.00
      H134          H  0.6657370  0.3512290  0.1409060    0.00000       Uiso       1.00
      H135          H  0.6260950  0.2853100  0.1445190    0.00000       Uiso       1.00
      H136          H  0.7032780  0.2728950 -0.1546200    0.00000       Uiso       1.00
      H137          H  0.7434710  0.3384680 -0.1568200    0.00000       Uiso       1.00
      H138          H  0.6140920  0.1694190 -0.1512900    0.00000       Uiso       1.00
      H139          H  0.6426790  0.1319200 -0.1507100    0.00000       Uiso       1.00
      H140          H  0.7298650  0.2119880  0.1544620    0.00000       Uiso       1.00
      H141          H  0.7005400  0.2488390  0.1550940    0.00000       Uiso       1.00
      H142          H  0.6553600  0.0954890  0.0001410    0.00000       Uiso       1.00
      H143          H  0.7506070  0.0854660  0.0069150    0.00000       Uiso       1.00
      H144          H  0.7615060  0.1913400  0.0082300    0.00000       Uiso       1.00
      H145          H  0.6469700  0.0367250 -0.0051800    0.00000       Uiso       1.00
      H146          H  0.3335530  0.0134280 -0.0469100    0.00000       Uiso       1.00
      H147          H  0.2992560  0.9477141 -0.0471400    0.00000       Uiso       1.00
      H148          H  0.3962020  0.9454490  0.1085190    0.00000       Uiso       1.00
      H149          H  0.4300710  1.0114341  0.1051600    0.00000       Uiso       1.00
      H150          H  0.6174230  0.9800640 -0.0675100    0.00000       Uiso       1.00
      H151          H  0.5846890  0.9145409 -0.0694600    0.00000       Uiso       1.00
      H152          H  0.6838090  0.9148930  0.0705820    0.00000       Uiso       1.00
      H153          H  0.7160440  0.9807150  0.0711090    0.00000       Uiso       1.00
      H154          H  0.2715330  0.8948650  0.0903010    0.00000       Uiso       1.00
      H155          H  0.2390230  0.8289990  0.0921260    0.00000       Uiso       1.00
      H156          H  0.3379520  0.8288870 -0.0322200    0.00000       Uiso       1.00
      H157          H  0.3710260  0.8945830 -0.0368500    0.00000       Uiso       1.00
      H158          H  0.5587980  0.8637040  0.0737210    0.00000       Uiso       1.00
      H159          H  0.5251230  0.7977590  0.0697700    0.00000       Uiso       1.00
      H160          H  0.6226900  0.7960840 -0.0657600    0.00000       Uiso       1.00
      H161          H  0.6568540  0.8617450 -0.0656900    0.00000       Uiso       1.00
      H162          H  0.3079430  0.7728640  0.0578670    0.00000       Uiso       1.00
      H163          H  0.5895510  0.7374210 -0.0164900    0.00000       Uiso       1.00
      H164          H  0.2042270  0.7238990  0.0323670    0.00000       Uiso       1.00
      H165          H  0.1936720  0.6182620  0.0414700    0.00000       Uiso       1.00
      H166          H  0.2995000  0.7146500  0.0606630    0.00000       Uiso       1.00
      H167          H  0.4855200  0.6944150 -0.0075000    0.00000       Uiso       1.00
      H168          H  0.4687220  0.5859200  0.0242560    0.00000       Uiso       1.00
      H169          H  0.5768980  0.6773910 -0.0017600    0.00000       Uiso       1.00
      H170          H  0.1459810  0.6747000  0.0233020    0.00000       Uiso       1.00
      H171          H  0.2202720  0.5909010  0.1355970    0.00000       Uiso       1.00
      H172          H  0.2494360  0.5547280  0.1184230    0.00000       Uiso       1.00
      H173          H  0.3479050  0.6490860 -0.0558500    0.00000       Uiso       1.00
      H174          H  0.3194510  0.6844990 -0.0400400    0.00000       Uiso       1.00
      H175          H  0.4321310  0.6542260 -0.2003000    0.00000       Uiso       1.00
      H176          H  0.3655430  0.6232410 -0.2178100    0.00000       Uiso       1.00
      H177          H  0.3574590  0.5638540  0.2259580    0.00000       Uiso       1.00
      H178          H  0.4234070  0.5880590  0.2197300    0.00000       Uiso       1.00
      H179          H  0.2513150  0.5392170 -0.1539800    0.00000       Uiso       1.00
      H180          H  0.2110580  0.4744980 -0.1803800    0.00000       Uiso       1.00
      H181          H  0.2924350  0.4557160  0.0490500    0.00000       Uiso       1.00
      H182          H  0.3320170  0.5194720  0.0744080    0.00000       Uiso       1.00
      H183          H  0.1736630  0.4243530 -0.0642400    0.00000       Uiso       1.00
      H184          H  0.1540260  0.3154350 -0.0397900    0.00000       Uiso       1.00
      H185          H  0.2633820  0.4039810 -0.0648100    0.00000       Uiso       1.00
      H186          H  0.1125840  0.3772310 -0.0556800    0.00000       Uiso       1.00
      H187          H  0.0526240  0.3525730 -0.0313600    0.00000       Uiso       1.00
      H188          H -0.0122900  0.3212430 -0.0156300    0.00000       Uiso       1.00
      H189          H  0.0514510  0.2503880 -0.0233500    0.00000       Uiso       1.00
      H190          H  0.0885700  0.6494820 -0.0221700    0.00000       Uiso       1.00
      H191          H  0.0235250  0.6178350 -0.0353900    0.00000       Uiso       1.00
      H192          H  0.0213620  0.5158260  0.0592630    0.00000       Uiso       1.00
      H193          H  0.0869650  0.5484240  0.0671950    0.00000       Uiso       1.00
      H194          H  0.9864910  0.2179710 -0.0074500    0.00000       Uiso       1.00
      H195          H  0.9701210  0.5920940  0.0487670    0.00000       Uiso       1.00
      H196          H  0.9046160  0.5599760  0.0427930    0.00000       Uiso       1.00
      H197          H  0.9028700  0.4585170 -0.0350200    0.00000       Uiso       1.00
      H198          H  0.9682160  0.4899100 -0.0346500    0.00000       Uiso       1.00
      H199          H  0.9329760  0.2942140 -0.0074200    0.00000       Uiso       1.00
      H200          H  0.8677840  0.2611750 -0.0015400    0.00000       Uiso       1.00
      H201          H  0.8678850  0.1595890  0.0094420    0.00000       Uiso       1.00
      H202          H  0.9325650  0.1914130  0.0040270    0.00000       Uiso       1.00
      H203          H  0.8430830  0.4332980 -0.0091900    0.00000       Uiso       1.00
      H204          H  0.8090540  0.1342910  0.0115790    0.00000       Uiso       1.00
      C205          C  3.5381072  0.6029360  0.0139250    0.00000       Uiso       1.00
      C206          C  3.2219870  0.3296970 -0.0441100    0.00000       Uiso       1.00
      C207          C  3.2728319  0.3180920 -0.0299500    0.00000       Uiso       1.00
      C208          C  3.5901029  0.5935190  0.0161490    0.00000       Uiso       1.00
      C209          C  3.2534940  0.2799900 -0.0446700    0.00000       Uiso       1.00
      C210          C  3.2705820  0.2597950 -0.0364600    0.00000       Uiso       1.00
      C211          C  3.3089621  0.2765530 -0.0145600    0.00000       Uiso       1.00
      C212          C  3.3281901  0.3151800  0.0015530    0.00000       Uiso       1.00
      C213          C  3.3105481  0.3348150 -0.0064700    0.00000       Uiso       1.00
      C214          C  3.5722179  0.5566380 -0.0293700    0.00000       Uiso       1.00
      C215          C  3.5897260  0.5368430 -0.0296400    0.00000       Uiso       1.00
      C216          C  3.6270730  0.5528311  0.0155670    0.00000       Uiso       1.00
      C217          C  3.6449633  0.5903130  0.0605920    0.00000       Uiso       1.00
      C218          C  3.6268821  0.6095650  0.0605390    0.00000       Uiso       1.00
      C219          C  3.3273671  0.2558260 -0.0124300    0.00000       Uiso       1.00
      C220          C  3.6455181  0.5322030  0.0156960    0.00000       Uiso       1.00
      C221          C  3.3103371  0.2193210  0.0464460    0.00000       Uiso       1.00
      C222          C  3.3284380  0.2000650  0.0491190    0.00000       Uiso       1.00
      C223          C  3.3644109  0.2150960 -0.0064400    0.00000       Uiso       1.00
      C224          C  3.3813500  0.2509070 -0.0666700    0.00000       Uiso       1.00
      C225          C  3.3638072  0.2706770 -0.0698100    0.00000       Uiso       1.00
      C226          C  3.6268492  0.4941730  0.0500220    0.00000       Uiso       1.00
      C227          C  3.6446350  0.4746560  0.0490060    0.00000       Uiso       1.00
      C228          C  3.6818860  0.4909430  0.0142190    0.00000       Uiso       1.00
      C229          C  3.7006283  0.5284130 -0.0202700    0.00000       Uiso       1.00
      C230          C  3.6833830  0.5484920 -0.0194700    0.00000       Uiso       1.00
      C231          C  3.4164500  0.2056990 -0.0164000    0.00000       Uiso       1.00
      C232          C  3.4300282  0.1803600 -0.0098700    0.00000       Uiso       1.00
      C233          C  3.7328990  0.4796420  0.0095880    0.00000       Uiso       1.00
      C234          C  3.7446640  0.4528470  0.0057530    0.00000       Uiso       1.00
      C235          C  3.4077983  0.1426090  0.0010230    0.00000       Uiso       1.00
      C236          C  3.4210589  0.1184240  0.0102750    0.00000       Uiso       1.00
      C237          C  3.4585652  0.1333300  0.0080930    0.00000       Uiso       1.00
      C238          C  3.4830213  0.1712830 -0.0050000    0.00000       Uiso       1.00
      C239          C  3.4672341  0.1938150 -0.0141200    0.00000       Uiso       1.00
      C240          C  3.7210801  0.4155060  0.0027910    0.00000       Uiso       1.00
      C241          C  3.7335050  0.3901040 -0.0030100    0.00000       Uiso       1.00
      C242          C  3.7718031  0.4048050 -0.0047400    0.00000       Uiso       1.00
      C243          C  3.7965760  0.4418570 -0.0010500    0.00000       Uiso       1.00
      C244          C  3.7819691  0.4649600  0.0041660    0.00000       Uiso       1.00
      C245          C  3.3950019  0.0797240  0.0212430    0.00000       Uiso       1.00
      C246          C  3.5219252  0.1865360 -0.0069200    0.00000       Uiso       1.00
      C247          C  3.7087770  0.3514010 -0.0071100    0.00000       Uiso       1.00
      C248          C  3.5394862  0.1700750  0.0761500    0.00000       Uiso       1.00
      C249          C  3.5768449  0.1856030  0.0789140    0.00000       Uiso       1.00
      C250          C  3.5996811  0.2185870 -0.0020900    0.00000       Uiso       1.00
      C251          C  3.5827949  0.2351260 -0.0858600    0.00000       Uiso       1.00
      C252          C  3.5454962  0.2197520 -0.0886500    0.00000       Uiso       1.00
      C253          C  3.6743782  0.3344230  0.0735150    0.00000       Uiso       1.00
      C254          C  3.6519229  0.2971010  0.0760580    0.00000       Uiso       1.00
      C255          C  3.6616352  0.2737840 -0.0035700    0.00000       Uiso       1.00
      C256          C  3.6950989  0.2901350 -0.0870600    0.00000       Uiso       1.00
      C257          C  3.7177360  0.3273290 -0.0890700    0.00000       Uiso       1.00
      C258          C  3.6550963  0.2122010  0.0015660    0.00000       Uiso       1.00
      C259          C  3.6395032  0.1787140 -0.0816300    0.00000       Uiso       1.00
      C260          C  3.6558058  0.1575770 -0.0815600    0.00000       Uiso       1.00
      C261          C  3.6892149  0.1683610  0.0017170    0.00000       Uiso       1.00
      C262          C  3.7044790  0.2022890  0.0852170    0.00000       Uiso       1.00
      C263          C  3.6879330  0.2231560  0.0855060    0.00000       Uiso       1.00
      C264          C  3.7062001  0.1463160  0.0034500    0.00000       Uiso       1.00
      C265          C  3.6850562  0.1078100  0.0010420    0.00000       Uiso       1.00
      C266          C  3.7002401  0.0855600  0.0029650    0.00000       Uiso       1.00
      C267          C  3.7382140  0.1027520  0.0063150    0.00000       Uiso       1.00
      C268          C  3.7612150  0.1405190  0.0081600    0.00000       Uiso       1.00
      C269          C  3.7446139  0.1616180  0.0079240    0.00000       Uiso       1.00
      C270          C  3.6762393  0.0463650  0.0009780    0.00000       Uiso       1.00
      C271          C  3.3847950  0.0179590  0.0296900    0.00000       Uiso       1.00
      C272          C  3.6695511 -0.0139200  0.0035950    0.00000       Uiso       1.00
      C273          C  3.3476529 -0.0012500 -0.0114600    0.00000       Uiso       1.00
      C274          C  3.3280189 -0.0386100 -0.0108300    0.00000       Uiso       1.00
      C275          C  3.3444691 -0.0597600  0.0304060    0.00000       Uiso       1.00
      C276          C  3.3820610 -0.0399000  0.0730370    0.00000       Uiso       1.00
      C277          C  3.4011490 -0.0025900  0.0718790    0.00000       Uiso       1.00
      C278          C  3.6323731 -0.0339400 -0.0357100    0.00000       Uiso       1.00
      C279          C  3.6136270 -0.0712600 -0.0366400    0.00000       Uiso       1.00
      C280          C  3.6309543 -0.0917200  0.0016820    0.00000       Uiso       1.00
      C281          C  3.6687992 -0.0711100  0.0387160    0.00000       Uiso       1.00
      C282          C  3.6870070 -0.0337500  0.0398670    0.00000       Uiso       1.00
      C283          C  3.3245552 -0.0989000  0.0276700    0.00000       Uiso       1.00
      C284          C  3.6111071 -0.1308800  0.0038700    0.00000       Uiso       1.00
      C285          C  3.2865250 -0.1193100  0.0612150    0.00000       Uiso       1.00
      C286          C  3.2681789 -0.1566500  0.0632150    0.00000       Uiso       1.00
      C287          C  3.2856810 -0.1766500  0.0318910    0.00000       Uiso       1.00
      C288          C  3.3230510 -0.1568500 -0.0042000    0.00000       Uiso       1.00
      C289          C  3.3419318 -0.1195200 -0.0066200    0.00000       Uiso       1.00
      C290          C  3.5732460 -0.1508300  0.0415140    0.00000       Uiso       1.00
      C291          C  3.5542319 -0.1881500  0.0399420    0.00000       Uiso       1.00
      C292          C  3.5709262 -0.2085900  0.0020550    0.00000       Uiso       1.00
      C293          C  3.6083000 -0.1893000 -0.0343700    0.00000       Uiso       1.00
      C294          C  3.6278689 -0.1519400 -0.0332700    0.00000       Uiso       1.00
      C295          C  3.2786980 -0.2368700  0.0475090    0.00000       Uiso       1.00
      C296          C  3.2546332 -0.2760400  0.0462520    0.00000       Uiso       1.00
      C297          C  3.5607231 -0.2704200 -0.0081500    0.00000       Uiso       1.00
      C298          C  3.5345290 -0.3091300 -0.0031900    0.00000       Uiso       1.00
      C299          C  3.2167161 -0.2932900  0.0383860    0.00000       Uiso       1.00
      C300          C  3.1939571 -0.3310900  0.0382930    0.00000       Uiso       1.00
      C301          C  3.2106850 -0.3520600  0.0451150    0.00000       Uiso       1.00
      C302          C  3.2490020 -0.3366900  0.0505530    0.00000       Uiso       1.00
      C303          C  3.2698209 -0.2982600  0.0533600    0.00000       Uiso       1.00
      C304          C  3.4970942 -0.3235900 -0.0025300    0.00000       Uiso       1.00
      C305          C  3.4722881 -0.3616700  0.0087590    0.00000       Uiso       1.00
      C306          C  3.4876981 -0.3847100  0.0166010    0.00000       Uiso       1.00
      C307          C  3.5248489 -0.3714700  0.0102370    0.00000       Uiso       1.00
      C308          C  3.5473750 -0.3337000  0.0011370    0.00000       Uiso       1.00
      C309          C  3.4338388 -0.3764100  0.0100270    0.00000       Uiso       1.00
      C310          C  3.2664239 -0.3585700  0.0467620    0.00000       Uiso       1.00
      C311          C  3.1548522 -0.3455200  0.0302400    0.00000       Uiso       1.00
      C312          C  3.2483621 -0.3959100  0.0902560    0.00000       Uiso       1.00
      C313          C  3.2648680 -0.4167800  0.0775120    0.00000       Uiso       1.00
      C314          C  3.3006263 -0.4025900  0.0180710    0.00000       Uiso       1.00
      C315          C  3.3193948 -0.3651100 -0.0164100    0.00000       Uiso       1.00
      C316          C  3.3030722 -0.3441400 -0.0037600    0.00000       Uiso       1.00
      C317          C  3.4156659 -0.3663600 -0.1082200    0.00000       Uiso       1.00
      C318          C  3.3782129 -0.3835800 -0.1163900    0.00000       Uiso       1.00
      C319          C  3.3560061 -0.4089500  0.0028950    0.00000       Uiso       1.00
      C320          C  3.3736081 -0.4175400  0.1263640    0.00000       Uiso       1.00
      C321          C  3.4107862 -0.4033300  0.1257190    0.00000       Uiso       1.00
      C322          C  3.2944911 -0.4642400 -0.0263800    0.00000       Uiso       1.00
      C323          C  3.2603400 -0.4790500 -0.1039200    0.00000       Uiso       1.00
      C324          C  3.2376063 -0.5160600 -0.1220200    0.00000       Uiso       1.00
      C325          C  3.2471499 -0.5417600 -0.0648400    0.00000       Uiso       1.00
      C326          C  3.2827160 -0.5264300  0.0017210    0.00000       Uiso       1.00
      C327          C  3.3052590 -0.4894000  0.0199370    0.00000       Uiso       1.00
      C328          C  3.2219801 -0.5805100 -0.0659900    0.00000       Uiso       1.00
      C329          C  3.1837940 -0.5948700 -0.0635700    0.00000       Uiso       1.00
      C330          C  3.1588809 -0.6318000 -0.0539800    0.00000       Uiso       1.00
      C331          C  3.1731110 -0.6552401 -0.0481200    0.00000       Uiso       1.00
      C332          C  3.2103379 -0.6434200 -0.0513000    0.00000       Uiso       1.00
      C333          C  3.2340329 -0.6061800 -0.0612500    0.00000       Uiso       1.00
      C334          C  3.1201568 -0.6439700 -0.0495500    0.00000       Uiso       1.00
      C335          C  3.0936332 -0.3982600  0.0243620    0.00000       Uiso       1.00
      C336          C  3.0578721 -0.6957800 -0.0291100    0.00000       Uiso       1.00
      C337          C  3.0382271 -0.6772200 -0.0263200    0.00000       Uiso       1.00
      C338          C  3.0008729 -0.6953400 -0.0169800    0.00000       Uiso       1.00
      C339          C  2.9797571 -0.7339700 -0.0100300    0.00000       Uiso       1.00
      C340          C  3.0001161 -0.7522800 -0.0123900    0.00000       Uiso       1.00
      C341          C  3.0374060 -0.7338300 -0.0217300    0.00000       Uiso       1.00
      C342          C  3.0741203 -0.3800600 -0.0040100    0.00000       Uiso       1.00
      C343          C  3.0367861 -0.3982100 -0.0109400    0.00000       Uiso       1.00
      C344          C  3.0155139 -0.4365500  0.0112290    0.00000       Uiso       1.00
      C345          C  3.0356250 -0.4546700  0.0390100    0.00000       Uiso       1.00
      C346          C  3.0729911 -0.4361200  0.0449360    0.00000       Uiso       1.00
      C347          C  2.9401340 -0.7535300 -0.0027900    0.00000       Uiso       1.00
      C348          C  2.9760532 -0.4556900  0.0075110    0.00000       Uiso       1.00
      C349          C  2.9559050 -0.4373900  0.0280510    0.00000       Uiso       1.00
      C350          C  2.9185388 -0.4557100  0.0259820    0.00000       Uiso       1.00
      C351          C  2.8978648 -0.4935300  0.0041970    0.00000       Uiso       1.00
      C352          C  2.9174049 -0.5119400 -0.0167200    0.00000       Uiso       1.00
      C353          C  2.9548011 -0.4940000 -0.0156700    0.00000       Uiso       1.00
      C354          C  2.9194760 -0.7355400 -0.0032600    0.00000       Uiso       1.00
      C355          C  2.8820901 -0.7543500 -0.0001100    0.00000       Uiso       1.00
      C356          C  2.8618331 -0.7924700  0.0044430    0.00000       Uiso       1.00
      C357          C  2.8818729 -0.8106300  0.0059640    0.00000       Uiso       1.00
      C358          C  2.9192500 -0.7921600  0.0029590    0.00000       Uiso       1.00
      C359          C  2.8354361 -0.5455600 -0.0027700    0.00000       Uiso       1.00
      C360          C  2.8003621 -0.8453100  0.0097420    0.00000       Uiso       1.00
      C361          C  0.5388660  3.1108551  0.5141841    0.00000       Uiso       1.00
      C362          C  0.2229150  2.8364720  0.4870150    0.00000       Uiso       1.00
      C363          C  0.2740249  2.8252490  0.4838500    0.00000       Uiso       1.00
      C364          C  0.5911320  3.1017649  0.4987680    0.00000       Uiso       1.00
      C365          C  0.2552091  2.7875581  0.5129330    0.00000       Uiso       1.00
      C366          C  0.2725160  2.7675300  0.5099360    0.00000       Uiso       1.00
      C367          C  0.3104860  2.7839770  0.4774320    0.00000       Uiso       1.00
      C368          C  0.3291911  2.8221891  0.4481360    0.00000       Uiso       1.00
      C369          C  0.3114100  2.8417172  0.4518150    0.00000       Uiso       1.00
      C370          C  0.5740820  3.0654001  0.5518880    0.00000       Uiso       1.00
      C371          C  0.5916250  3.0456369  0.5497360    0.00000       Uiso       1.00
      C372          C  0.6282280  3.0610490  0.4937420    0.00000       Uiso       1.00
      C373          C  0.6454430  3.0981331  0.4424730    0.00000       Uiso       1.00
      C374          C  0.6273170  3.1173639  0.4450130    0.00000       Uiso       1.00
      C375          C  0.3289751  2.7632570  0.4745530    0.00000       Uiso       1.00
      C376          C  0.6464830  3.0402262  0.4888670    0.00000       Uiso       1.00
      C377          C  0.3105550  2.7254140  0.4369240    0.00000       Uiso       1.00
      C378          C  0.3285280  2.7060480  0.4334650    0.00000       Uiso       1.00
      C379          C  0.3658561  2.7223520  0.4671420    0.00000       Uiso       1.00
      C380          C  0.3842850  2.7596061  0.5059250    0.00000       Uiso       1.00
      C381          C  0.3668219  2.7794590  0.5094320    0.00000       Uiso       1.00
      C382          C  0.6273100  3.0019472  0.4598670    0.00000       Uiso       1.00
      C383          C  0.6449130  2.9822299  0.4582950    0.00000       Uiso       1.00
      C384          C  0.6824980  2.9985342  0.4849930    0.00000       Uiso       1.00
      C385          C  0.7017370  3.0362561  0.5132710    0.00000       Uiso       1.00
      C386          C  0.6847090  3.0565362  0.5146390    0.00000       Uiso       1.00
      C387          C  0.4178400  2.7129240  0.4552290    0.00000       Uiso       1.00
      C388          C  0.4315009  2.6877239  0.4688480    0.00000       Uiso       1.00
      C389          C  0.7335019  2.9872811  0.4874600    0.00000       Uiso       1.00
      C390          C  0.7455950  2.9607279  0.4899450    0.00000       Uiso       1.00
      C391          C  0.4093350  2.6500282  0.4843140    0.00000       Uiso       1.00
      C392          C  0.4226350  2.6259940  0.5026490    0.00000       Uiso       1.00
      C393          C  0.4601480  2.6409142  0.5005030    0.00000       Uiso       1.00
      C394          C  0.4845430  2.6788862  0.4852030    0.00000       Uiso       1.00
      C395          C  0.4687360  2.7013011  0.4684540    0.00000       Uiso       1.00
      C396          C  0.7222090  2.9233689  0.4908060    0.00000       Uiso       1.00
      C397          C  0.7349100  2.8981721  0.4959720    0.00000       Uiso       1.00
      C398          C  0.7732220  2.9130251  0.4987630    0.00000       Uiso       1.00
      C399          C  0.7977690  2.9501050  0.4963300    0.00000       Uiso       1.00
      C400          C  0.7829580  2.9730551  0.4921970    0.00000       Uiso       1.00
      C401          C  0.3968860  2.5874791  0.5255790    0.00000       Uiso       1.00
      C402          C  0.5233130  2.6942830  0.4915280    0.00000       Uiso       1.00
      C403          C  0.7103810  2.8595271  0.4989860    0.00000       Uiso       1.00
      C404          C  0.5411990  2.6767249  0.4213200    0.00000       Uiso       1.00
      C405          C  0.5785870  2.6926322  0.4206520    0.00000       Uiso       1.00
      C406          C  0.6010860  2.7267570  0.4935510    0.00000       Uiso       1.00
      C407          C  0.5838180  2.7441480  0.5665380    0.00000       Uiso       1.00
      C408          C  0.5464991  2.7286570  0.5656610    0.00000       Uiso       1.00
      C409          C  0.6764901  2.8425701  0.4140770    0.00000       Uiso       1.00
      C410          C  0.6539310  2.8052871  0.4122660    0.00000       Uiso       1.00
      C411          C  0.6630830  2.7820680  0.4966970    0.00000       Uiso       1.00
      C412          C  0.6960740  2.7984111  0.5840160    0.00000       Uiso       1.00
      C413          C  0.7188750  2.8355579  0.5851710    0.00000       Uiso       1.00
      C414          C  0.6567020  2.7206690  0.4967640    0.00000       Uiso       1.00
      C415          C  0.6410291  2.6875062  0.5825130    0.00000       Uiso       1.00
      C416          C  0.6571891  2.6662621  0.5853540    0.00000       Uiso       1.00
      C417          C  0.6906000  2.6766479  0.5031230    0.00000       Uiso       1.00
      C418          C  0.7061620  2.7104380  0.4180970    0.00000       Uiso       1.00
      C419          C  0.6896691  2.7313662  0.4143980    0.00000       Uiso       1.00
      C420          C  0.7070190  2.6540771  0.5025520    0.00000       Uiso       1.00
      C421          C  0.6853729  2.6155820  0.5055090    0.00000       Uiso       1.00
      C422          C  0.6999851  2.5928202  0.5011140    0.00000       Uiso       1.00
      C423          C  0.7379200  2.6095190  0.4954680    0.00000       Uiso       1.00
      C424          C  0.7613730  2.6472211  0.4945040    0.00000       Uiso       1.00
      C425          C  0.7453321  2.6688201  0.4969860    0.00000       Uiso       1.00
      C426          C  0.6755890  2.5536411  0.5028610    0.00000       Uiso       1.00
      C427          C  0.3873200  2.5259552  0.5415330    0.00000       Uiso       1.00
      C428          C  0.6684440  2.4929850  0.4927330    0.00000       Uiso       1.00
      C429          C  0.3509850  2.5070181  0.5952350    0.00000       Uiso       1.00
      C430          C  0.3315720  2.4696600  0.6017890    0.00000       Uiso       1.00
      C431          C  0.3473391  2.4482331  0.5545100    0.00000       Uiso       1.00
      C432          C  0.3843111  2.4678941  0.5020140    0.00000       Uiso       1.00
      C433          C  0.4032031  2.5051723  0.4962250    0.00000       Uiso       1.00
      C434          C  0.6311911  2.4727283  0.5305080    0.00000       Uiso       1.00
      C435          C  0.6124720  2.4354022  0.5278290    0.00000       Uiso       1.00
      C436          C  0.6298130  2.4151211  0.4862570    0.00000       Uiso       1.00
      C437          C  0.6677390  2.4359310  0.4511070    0.00000       Uiso       1.00
      C438          C  0.6859500  2.4732862  0.4541310    0.00000       Uiso       1.00
      C439          C  0.3272210  2.4090130  0.5550080    0.00000       Uiso       1.00
      C440          C  0.6099070  2.3759651  0.4791200    0.00000       Uiso       1.00
      C441          C  0.2888040  2.3887000  0.5321300    0.00000       Uiso       1.00
      C442          C  0.2705570  2.3514102  0.5209370    0.00000       Uiso       1.00
      C443          C  0.2884950  2.3312922  0.5336370    0.00000       Uiso       1.00
      C444          C  0.3262591  2.3509951  0.5598910    0.00000       Uiso       1.00
      C445          C  0.3449980  2.3882439  0.5709400    0.00000       Uiso       1.00
      C446          C  0.5719980  2.3562479  0.4422170    0.00000       Uiso       1.00
      C447          C  0.5528100  2.3189240  0.4413440    0.00000       Uiso       1.00
      C448          C  0.5694030  2.2981989  0.4754540    0.00000       Uiso       1.00
      C449          C  0.6068480  2.3172710  0.5105470    0.00000       Uiso       1.00
      C450          C  0.6265780  2.3546190  0.5117180    0.00000       Uiso       1.00
      C451          C  0.2812510  2.2707169  0.5185120    0.00000       Uiso       1.00
      C452          C  0.2568280  2.2316360  0.5115600    0.00000       Uiso       1.00
      C453          C  0.5595000  2.2365811  0.4808990    0.00000       Uiso       1.00
      C454          C  0.5336970  2.1978319  0.4898880    0.00000       Uiso       1.00
      C455          C  0.2188921  2.2148800  0.5064010    0.00000       Uiso       1.00
      C456          C  0.1955750  2.1771910  0.4998180    0.00000       Uiso       1.00
      C457          C  0.2117230  2.1556852  0.4972210    0.00000       Uiso       1.00
      C458          C  0.2500290  2.1705520  0.5031000    0.00000       Uiso       1.00
      C459          C  0.2715760  2.2089860  0.5101660    0.00000       Uiso       1.00
      C460          C  0.4961630  2.1828001  0.4903280    0.00000       Uiso       1.00
      C461          C  0.4718440  2.1448190  0.5018930    0.00000       Uiso       1.00
      C462          C  0.4877360  2.1223609  0.5098340    0.00000       Uiso       1.00
      C463          C  0.5250190  2.1359789  0.5077970    0.00000       Uiso       1.00
      C464          C  0.5471150  2.1737740  0.4991650    0.00000       Uiso       1.00
      C465          C  0.4329400  2.1295600  0.5051740    0.00000       Uiso       1.00
      C466          C  0.2665480  2.1481009  0.5025401    0.00000       Uiso       1.00
      C467          C  0.1565260  2.1632440  0.4965410    0.00000       Uiso       1.00
      C468          C  0.2511739  2.1145520  0.4158200    0.00000       Uiso       1.00
      C469          C  0.2673579  2.0933390  0.4142510    0.00000       Uiso       1.00
      C470          C  0.2999230  2.1036890  0.4994690    0.00000       Uiso       1.00
      C471          C  0.3155960  2.1368091  0.5855480    0.00000       Uiso       1.00
      C472          C  0.2996150  2.1582122  0.5872740    0.00000       Uiso       1.00
      C473          C  0.4152560  2.1460450  0.4234220    0.00000       Uiso       1.00
      C474          C  0.3778830  2.1303799  0.4212970    0.00000       Uiso       1.00
      C475          C  0.3552010  2.0972791  0.5017110    0.00000       Uiso       1.00
      C476          C  0.3722240  2.0808132  0.5848480    0.00000       Uiso       1.00
      C477          C  0.4095519  2.0963540  0.5872861    0.00000       Uiso       1.00
      C478          C  0.2932550  2.0420680  0.5022230    0.00000       Uiso       1.00
      C479          C  0.2596430  2.0255902  0.5845380    0.00000       Uiso       1.00
      C480          C  0.2371530  1.9883851  0.5861500    0.00000       Uiso       1.00
      C481          C  0.2463699  1.9645200  0.5038900    0.00000       Uiso       1.00
      C482          C  0.2807830  1.9816341  0.4235670    0.00000       Uiso       1.00
      C483          C  0.3031760  2.0189321  0.4224480    0.00000       Uiso       1.00
      C484          C  0.2218760  1.9258389  0.4989340    0.00000       Uiso       1.00
      C485          C  0.1835989  1.9110739  0.4998390    0.00000       Uiso       1.00
      C486          C  0.1590110  1.8740240  0.4970720    0.00000       Uiso       1.00
      C487          C  0.1736670  1.8509450  0.4929390    0.00000       Uiso       1.00
      C488          C  0.2110060  1.8631831  0.4909230    0.00000       Uiso       1.00
      C489          C  0.2344630  1.9005421  0.4933440    0.00000       Uiso       1.00
      C490          C  0.1202120  1.8615340  0.4982810    0.00000       Uiso       1.00
      C491          C  0.0950780  2.1106381  0.4940090    0.00000       Uiso       1.00
      C492          C  0.0579910  1.8095300  0.4972350    0.00000       Uiso       1.00
      C493          C  0.0384040  1.8279589  0.4792940    0.00000       Uiso       1.00
      C494          C  0.0010000  1.8098329  0.4789050    0.00000       Uiso       1.00
      C495          C -0.0201200  1.7713760  0.4972270    0.00000       Uiso       1.00
      C496          C  0.0001381  1.7531571  0.5158870    0.00000       Uiso       1.00
      C497          C  0.0374970  1.7716371  0.5150190    0.00000       Uiso       1.00
      C498          C  0.0753251  2.1290672  0.4887720    0.00000       Uiso       1.00
      C499          C  0.0379550  2.1108642  0.4881130    0.00000       Uiso       1.00
      C500          C  0.0168220  2.0722480  0.4932550    0.00000       Uiso       1.00
      C501          C  0.0372250  2.0539892  0.4981720    0.00000       Uiso       1.00
      C502          C  0.0746050  2.0725429  0.4984290    0.00000       Uiso       1.00
      C503          C -0.0596400  1.7519500  0.4963330    0.00000       Uiso       1.00
      C504          C -0.0228199  2.0528781  0.4939070    0.00000       Uiso       1.00
      C505          C -0.0430800  2.0712790  0.4979760    0.00000       Uiso       1.00
      C506          C -0.0804500  2.0528700  0.4984400    0.00000       Uiso       1.00
      C507          C -0.1010800  2.0147841  0.4953450    0.00000       Uiso       1.00
      C508          C -0.0814800  1.9961790  0.4915450    0.00000       Uiso       1.00
      C509          C -0.0440800  2.0142531  0.4906720    0.00000       Uiso       1.00
      C510          C -0.0800700  1.7699580  0.5159760    0.00000       Uiso       1.00
      C511          C -0.1174401  1.7513059  0.5151230    0.00000       Uiso       1.00
      C512          C -0.1378299  1.7134241  0.4956960    0.00000       Uiso       1.00
      C513          C -0.1180000  1.6952660  0.4761680    0.00000       Uiso       1.00
      C514          C -0.0806200  1.7135520  0.4758190    0.00000       Uiso       1.00
      C515          C -0.1633801  1.9627329  0.4981160    0.00000       Uiso       1.00
      C516          C -0.1995600  1.6609200  0.4912230    0.00000       Uiso       1.00
      N517          N  3.2563152  0.3398580 -0.0381900    0.00000       Uiso       1.00
      N518          N  3.5727589  0.6145030  0.0173530    0.00000       Uiso       1.00
      N519          N  3.3819242  0.1942400 -0.0017100    0.00000       Uiso       1.00
      N520          N  3.6985431  0.4693110  0.0141400    0.00000       Uiso       1.00
      N521          N  3.6386552  0.2347890 -0.0001400    0.00000       Uiso       1.00
      N522          N  3.4060411  0.0562680  0.0280390    0.00000       Uiso       1.00
      N523          N  3.6893072  0.0245140  0.0067650    0.00000       Uiso       1.00
      N524          N  3.2656901 -0.2150400  0.0366610    0.00000       Uiso       1.00
      N525          N  3.5498171 -0.2468900  0.0014270    0.00000       Uiso       1.00
      N526          N  3.3169730 -0.4253200 -0.0012100    0.00000       Uiso       1.00
      N527          N  3.1321158 -0.3803300  0.0321180    0.00000       Uiso       1.00
      N528          N  3.0962749 -0.6783600 -0.0380000    0.00000       Uiso       1.00
      N529          N  2.8232801 -0.8105400  0.0069140    0.00000       Uiso       1.00
      N530          N  2.8593428 -0.5110400  0.0039870    0.00000       Uiso       1.00
      N531          N  0.2573050  2.8468611  0.4857840    0.00000       Uiso       1.00
      N532          N  0.5734430  3.1224921  0.4984140    0.00000       Uiso       1.00
      N533          N  0.3832020  2.7013299  0.4639210    0.00000       Uiso       1.00
      N534          N  0.6990880  2.9768040  0.4834210    0.00000       Uiso       1.00
      N535          N  0.6401030  2.7431071  0.4944140    0.00000       Uiso       1.00
      N536          N  0.4081560  2.5641870  0.5300730    0.00000       Uiso       1.00
      N537          N  0.6882449  2.5314600  0.4928470    0.00000       Uiso       1.00
      N538          N  0.2685910  2.2929411  0.5214090    0.00000       Uiso       1.00
      N539          N  0.5482301  2.2598782  0.4753340    0.00000       Uiso       1.00
      N540          N  0.3162340  2.0810230  0.4998760    0.00000       Uiso       1.00
      N541          N  0.1335710  2.1284931  0.4949680    0.00000       Uiso       1.00
      N542          N  0.0964460  1.8270161  0.4974890    0.00000       Uiso       1.00
      N543          N -0.1763600  1.6955971  0.4960890    0.00000       Uiso       1.00
      N544          N -0.1395800  1.9972731  0.4957650    0.00000       Uiso       1.00
