data_SIOC-COF-5
_audit_creation_date              0000-00-00
_audit_creation_method            'LanYouShi'
_symmetry_space_group_name_H-M    'P1'
_cell_length_a                    16.0438995
_cell_length_b                    5.2694001
_cell_length_c                    15.1386995
_cell_angle_alpha                 90.0000000
_cell_angle_beta                  86.5990982
_cell_angle_gamma                 90.0000000
loop_
_atom_site_label
_atom_site_type_symbol
_atom_site_fract_x
_atom_site_fract_y
_atom_site_fract_z
_atom_site_U_iso_or_equiv
_atom_site_adp_type
_atom_site_occupancy
        C1          C  0.4680112  0.0760894  0.2687371    0.00000       Uiso       1.00
        C2          C  0.5319897  0.0760894  0.7312609    0.00000       Uiso       1.00
        C3          C  0.3994776  0.1182369  0.3297286    0.00000       Uiso       1.00
        C4          C  0.6005233  0.1182369  0.6702694    0.00000       Uiso       1.00
        C5          C  0.4142633  0.1333155  0.4206397    0.00000       Uiso       1.00
        C6          C  0.5857376  0.1333155  0.5793584    0.00000       Uiso       1.00
        C7          C  0.4936213  0.0809307  0.4536216    0.00000       Uiso       1.00
        C8          C  0.5063797  0.0809307  0.5463764    0.00000       Uiso       1.00
        C9          C  0.5596464  0.0283522  0.3893751    0.00000       Uiso       1.00
       C10          C  0.4403545  0.0283522  0.6106229    0.00000       Uiso       1.00
       C11          C  0.5492346  0.0389545  0.2972898    0.00000       Uiso       1.00
       C12          C  0.4507664  0.0389545  0.7027081    0.00000       Uiso       1.00
        H1          H  0.4587035  0.0750815  0.2023246    0.00000       Uiso       1.00
        H2          H  0.5412975  0.0750815  0.7976735    0.00000       Uiso       1.00
        H3          H  0.3650925  0.1816129  0.4633594    0.00000       Uiso       1.00
        H4          H  0.6349084  0.1816129  0.5366387    0.00000       Uiso       1.00
        H5          H  0.6174040 -0.0170541  0.4094677    0.00000       Uiso       1.00
        H6          H  0.3825969 -0.0170541  0.5905304    0.00000       Uiso       1.00
       C13          C  0.6172152  0.0231744  0.2340911    0.00000       Uiso       1.00
       C14          C  0.3827858  0.0231744  0.7659069    0.00000       Uiso       1.00
        N1          N  0.6948725 -0.0450791  0.2551234    0.00000       Uiso       1.00
        N2          N  0.3051285 -0.0450791  0.7448746    0.00000       Uiso       1.00
        N3          N  0.2945311  0.0180654  0.2291365    0.00000       Uiso       1.00
        N4          N  0.7054698  0.0180654  0.7708615    0.00000       Uiso       1.00
       C15          C  0.3178445  0.1436277  0.3015999    0.00000       Uiso       1.00
       C16          C  0.6821564  0.1436277  0.6983981    0.00000       Uiso       1.00
        H7          H  0.6078706  0.0694761  0.1696801    0.00000       Uiso       1.00
        H8          H  0.3921304  0.0694761  0.8303179    0.00000       Uiso       1.00
        H9          H  0.2752403  0.2497502  0.3384912    0.00000       Uiso       1.00
       H10          H  0.7247607  0.2497502  0.6615069    0.00000       Uiso       1.00
        C1          C  0.0017005 -0.0215826  0.9523467    0.00000       Uiso       1.00
        C2          C  0.9983006 -0.0215826  0.0476512    0.00000       Uiso       1.00
       C10          C  0.0783081 -0.0221766  0.8998684    0.00000       Uiso       1.00
       C11          C  0.0939254 -0.2053237  0.8323676    0.00000       Uiso       1.00
       C12          C  0.1698409 -0.2096860  0.7808433    0.00000       Uiso       1.00
       C13          C  0.2331795 -0.0328476  0.7962097    0.00000       Uiso       1.00
       C14          C  0.2178375  0.1538755  0.8621698    0.00000       Uiso       1.00
       C15          C  0.1411617  0.1603656  0.9120721    0.00000       Uiso       1.00
        H4          H  0.1315418  0.3001505  0.9578350    0.00000       Uiso       1.00
        H5          H  0.0499522 -0.3384161  0.8200853    0.00000       Uiso       1.00
        H6          H  0.1788237 -0.3443090  0.7324575    0.00000       Uiso       1.00
        H7          H  0.2617419  0.2887101  0.8736128    0.00000       Uiso       1.00
       C10          C  0.9216928 -0.0221766  0.1001297    0.00000       Uiso       1.00
       C11          C  0.9060756 -0.2053237  0.1676304    0.00000       Uiso       1.00
       C12          C  0.8301601 -0.2096860  0.2191547    0.00000       Uiso       1.00
       C13          C  0.7668215 -0.0328476  0.2037883    0.00000       Uiso       1.00
       C14          C  0.7821635  0.1538755  0.1378282    0.00000       Uiso       1.00
       C15          C  0.8588393  0.1603656  0.0879260    0.00000       Uiso       1.00
        H4          H  0.8684591  0.3001505  0.0421630    0.00000       Uiso       1.00
        H5          H  0.9500488 -0.3384161  0.1799126    0.00000       Uiso       1.00
        H6          H  0.8211772 -0.3443090  0.2675405    0.00000       Uiso       1.00
        H7          H  0.7382591  0.2887101  0.1263851    0.00000       Uiso       1.00
       C16          C  0.0715105 -0.0161677  0.0962647    0.00000       Uiso       1.00
       C17          C  0.0823499  0.1747250  0.1604600    0.00000       Uiso       1.00
       C18          C  0.1556607  0.1897599  0.2066977    0.00000       Uiso       1.00
       C19          C  0.2209623  0.0134801  0.1897441    0.00000       Uiso       1.00
       C20          C  0.2102183 -0.1802220  0.1272272    0.00000       Uiso       1.00
       C21          C  0.1361777 -0.1964484  0.0822560    0.00000       Uiso       1.00
        H8          H  0.0369378  0.3070537  0.1736936    0.00000       Uiso       1.00
        H9          H  0.1610379  0.3321755  0.2517834    0.00000       Uiso       1.00
       H10          H  0.2562576 -0.3118089  0.1140687    0.00000       Uiso       1.00
       H11          H  0.1300542 -0.3403215  0.0383648    0.00000       Uiso       1.00
       C16          C  0.9284904 -0.0161677  0.9037334    0.00000       Uiso       1.00
       C17          C  0.9176511  0.1747250  0.8395380    0.00000       Uiso       1.00
       C18          C  0.8443403  0.1897599  0.7933003    0.00000       Uiso       1.00
       C19          C  0.7790387  0.0134801  0.8102539    0.00000       Uiso       1.00
       C20          C  0.7897827 -0.1802220  0.8727709    0.00000       Uiso       1.00
       C21          C  0.8638232 -0.1964484  0.9177420    0.00000       Uiso       1.00
        H8          H  0.9630632  0.3070537  0.8263044    0.00000       Uiso       1.00
        H9          H  0.8389631  0.3321755  0.7482146    0.00000       Uiso       1.00
       H10          H  0.7437434 -0.3118089  0.8859293    0.00000       Uiso       1.00
       H11          H  0.8699468 -0.3403215  0.9616332    0.00000       Uiso       1.00
