data_SIOC-COF-6
_audit_creation_date              0000-00-00
_audit_creation_method            'LanYouShi'
_symmetry_space_group_name_H-M    'P1'
_cell_length_a                    22.6028996
_cell_length_b                    21.2437992
_cell_length_c                    5.7251000
_cell_angle_alpha                 77.1625977
_cell_angle_beta                  91.6745987
_cell_angle_gamma                 86.0238037
loop_
_atom_site_label
_atom_site_type_symbol
_atom_site_fract_x
_atom_site_fract_y
_atom_site_fract_z
_atom_site_U_iso_or_equiv
_atom_site_adp_type
_atom_site_occupancy
        H1          H  0.9533114  0.8869546  5.2566953    0.00000       Uiso       1.00
        C1          C  0.0591617  0.1637904  4.6183858    0.00000       Uiso       1.00
        C2          C  0.0309808  0.1056511  4.6526628    0.00000       Uiso       1.00
        H2          H  1.0382481  0.2050966  4.5129876    0.00000       Uiso       1.00
        H3          H  0.9904407  0.1066403  4.5692325    0.00000       Uiso       1.00
        C3          C  0.0445822  0.9067698  4.6201324    0.00000       Uiso       1.00
        C4          C  0.0687171  0.8447822  4.6076717    0.00000       Uiso       1.00
        H4          H  0.0183446  0.9335325  4.4797406    0.00000       Uiso       1.00
        H5          H  0.0575367  0.8271318  4.4621587    0.00000       Uiso       1.00
        C5          C  0.8708570  0.0662242  4.8429165    0.00000       Uiso       1.00
        C6          C  0.8406577  0.1240097  4.8705068    0.00000       Uiso       1.00
        H6          H  0.8497554  0.0404614  4.7398791    0.00000       Uiso       1.00
        H7          H  0.7992482  0.1374025  4.7900219    0.00000       Uiso       1.00
        C7          C  0.9006518  0.8291020  5.0977340    0.00000       Uiso       1.00
        C8          C  0.9311214  0.8844112  5.1022105    0.00000       Uiso       1.00
        H8          H  0.9016019  0.7928525  5.2496009    0.00000       Uiso       1.00
        H9          H -0.0071738  0.0690922  5.1867404    0.00000       Uiso       1.00
        C9          C  0.0564855  0.0472754  4.8030639    0.00000       Uiso       1.00
       C10          C  0.1138666  0.0494606  4.9071770    0.00000       Uiso       1.00
       C11          C  0.1429245  0.1070776  4.8701901    0.00000       Uiso       1.00
       C12          C  0.1154185  0.1652502  4.7280793    0.00000       Uiso       1.00
       H10          H  0.1354937  0.0095649  5.0157619    0.00000       Uiso       1.00
       H11          H  0.1838181  0.1063798  4.9523468    0.00000       Uiso       1.00
       C13          C  0.0244706  0.9905063  4.8469162    0.00000       Uiso       1.00
       C14          C  0.0551405  0.9316363  4.8252630    0.00000       Uiso       1.00
       C15          C  0.1079767  0.8079540  4.7919474    0.00000       Uiso       1.00
       C16          C  0.1206108  0.8338093  4.9925652    0.00000       Uiso       1.00
       C17          C  0.0938734  0.8942669  5.0103378    0.00000       Uiso       1.00
       H12          H  0.1027721  0.9105538  5.1612186    0.00000       Uiso       1.00
       H13          H  0.1491561  0.8085327  5.1286011    0.00000       Uiso       1.00
       C18          C  0.3385158  0.4861702  4.7355952    0.00000       Uiso       1.00
       C19          C  0.3704731  0.4565541  4.9524741    0.00000       Uiso       1.00
       C20          C  0.4319731  0.4615209  4.9769173    0.00000       Uiso       1.00
       C21          C  0.4630052  0.4955998  4.7836809    0.00000       Uiso       1.00
       C22          C  0.4309393  0.5255058  4.5672050    0.00000       Uiso       1.00
       C23          C  0.3693737  0.5210599  4.5437856    0.00000       Uiso       1.00
       C24          C  0.5631285  0.4736800  4.6531715    0.00000       Uiso       1.00
       C25          C  0.5248380  0.4993013  4.8057127    0.00000       Uiso       1.00
       C26          C  0.5497791  0.5284089  4.9808846    0.00000       Uiso       1.00
       C27          C  0.6115546  0.5315403  5.0037847    0.00000       Uiso       1.00
       C28          C  0.6500343  0.5054587  4.8527822    0.00000       Uiso       1.00
       C29          C  0.6249109  0.4766811  4.6766801    0.00000       Uiso       1.00
        N1          N  0.2788490  0.4806351  4.7109489    0.00000       Uiso       1.00
       C30          C  0.2420922  0.5357674  4.6950588    0.00000       Uiso       1.00
       C31          C  0.2466887  0.5739852  4.8673391    0.00000       Uiso       1.00
       C32          C  0.2102183  0.6313671  4.8484631    0.00000       Uiso       1.00
       C33          C  0.1672888  0.6525722  4.6570554    0.00000       Uiso       1.00
       C34          C  0.1619234  0.6138844  4.4867206    0.00000       Uiso       1.00
       C35          C  0.1987343  0.5565752  4.5052242    0.00000       Uiso       1.00
       C36          C  0.2920657  0.3745072  4.6116085    0.00000       Uiso       1.00
       C37          C  0.2579577  0.4215712  4.7032461    0.00000       Uiso       1.00
       C38          C  0.2016485  0.4044661  4.7892032    0.00000       Uiso       1.00
       C39          C  0.1806863  0.3438559  4.7846594    0.00000       Uiso       1.00
       C40          C  0.2158892  0.2970829  4.6980882    0.00000       Uiso       1.00
       C41          C  0.2718585  0.3134587  4.6108050    0.00000       Uiso       1.00
       C42          C  0.7197144  0.6148773  4.6317153    0.00000       Uiso       1.00
       C43          C  0.7317722  0.5676445  4.8475490    0.00000       Uiso       1.00
        N2          N  0.7102656  0.5078472  4.8760905    0.00000       Uiso       1.00
       C44          C  0.7676591  0.5831176  5.0300870    0.00000       Uiso       1.00
       C45          C  0.7916754  0.6436914  4.9960246    0.00000       Uiso       1.00
       C46          C  0.7804266  0.6906754  4.7783971    0.00000       Uiso       1.00
       C47          C  0.7436376  0.6753833  4.5977983    0.00000       Uiso       1.00
       C48          C  0.7304944  0.3922169  5.0518293    0.00000       Uiso       1.00
       C49          C  0.7479623  0.4522029  4.9185753    0.00000       Uiso       1.00
       C50          C  0.8057848  0.4520290  4.8279614    0.00000       Uiso       1.00
       C51          C  0.8437034  0.3950677  4.8650117    0.00000       Uiso       1.00
       C52          C  0.8246194  0.3353988  4.9891262    0.00000       Uiso       1.00
       C53          C  0.7676674  0.3347497  5.0842719    0.00000       Uiso       1.00
       C54          C  0.1310755  0.7106991  4.6317091    0.00000       Uiso       1.00
       C55          C  0.1974829  0.2348939  4.7030792    0.00000       Uiso       1.00
       C56          C  0.8048626  0.7512152  4.7355852    0.00000       Uiso       1.00
       C57          C  0.8617958  0.2785011  5.0093694    0.00000       Uiso       1.00
        N3          N  0.1356158  0.7494669  4.7888288    0.00000       Uiso       1.00
        N4          N  0.8387694  0.2222589  4.9965663    0.00000       Uiso       1.00
        N5          N  0.8406675  0.7687976  4.8997593    0.00000       Uiso       1.00
        N6          N  0.1395100  0.2229917  4.6984196    0.00000       Uiso       1.00
       H14          H  0.3489311  0.4312529  5.0936270    0.00000       Uiso       1.00
       H15          H  0.4539590  0.4395571  5.1361766    0.00000       Uiso       1.00
       H16          H  0.4520861  0.5509778  4.4250755    0.00000       Uiso       1.00
       H17          H  0.3471236  0.5430590  4.3854699    0.00000       Uiso       1.00
       H18          H  0.5463833  0.4522188  4.5247722    0.00000       Uiso       1.00
       H19          H  0.5231606  0.5478244  5.0925345    0.00000       Uiso       1.00
       H20          H  0.6284645  0.5527978  5.1322908    0.00000       Uiso       1.00
       H21          H  0.6516646  0.4577490  4.5640912    0.00000       Uiso       1.00
       H22          H  0.2769325  0.5601635  5.0089417    0.00000       Uiso       1.00
       H23          H  0.2157121  0.6574974  4.9765549    0.00000       Uiso       1.00
       H24          H  0.1312572  0.6272414  4.3459907    0.00000       Uiso       1.00
       H25          H  0.1939645  0.5300983  4.3777928    0.00000       Uiso       1.00
       H26          H  0.3326643  0.3841166  4.5441494    0.00000       Uiso       1.00
       H27          H  0.1752020  0.4360922  4.8589592    0.00000       Uiso       1.00
       H28          H  0.1397957  0.3339233  4.8491950    0.00000       Uiso       1.00
       H29          H  0.2985544  0.2810684  4.5451941    0.00000       Uiso       1.00
       H30          H  0.6938131  0.6051475  4.4964142    0.00000       Uiso       1.00
       H31          H  0.7766688  0.5500488  5.1889119    0.00000       Uiso       1.00
       H32          H  0.8177028  0.6528270  5.1320715    0.00000       Uiso       1.00
       H33          H  0.7340613  0.7080737  4.4382782    0.00000       Uiso       1.00
       H34          H  0.6899248  0.3896650  5.1264811    0.00000       Uiso       1.00
       H35          H  0.8209312  0.4936961  4.7305293    0.00000       Uiso       1.00
       H36          H  0.8849962  0.3974755  4.7959423    0.00000       Uiso       1.00
       H37          H  0.7527545  0.2924828  5.1784368    0.00000       Uiso       1.00
       H38          H  0.1010048  0.7240601  4.4892898    0.00000       Uiso       1.00
       H39          H  0.2291305  0.1976078  4.7084818    0.00000       Uiso       1.00
       H40          H  0.7952294  0.7827328  4.5738783    0.00000       Uiso       1.00
       H41          H  0.9068849  0.2808706  5.0182705    0.00000       Uiso       1.00
       C58          C  0.9287782  0.0456003  4.9471693    0.00000       Uiso       1.00
       C59          C  0.8678655  0.1642576  4.9989514    0.00000       Uiso       1.00
       C60          C  0.9237802  0.1428323  5.1159735    0.00000       Uiso       1.00
       C61          C  0.9528220  0.0835612  5.0959611    0.00000       Uiso       1.00
       H42          H  0.9437199  0.1705558  5.2149739    0.00000       Uiso       1.00
       C62          C  0.9624252  0.9909670  4.8984265    0.00000       Uiso       1.00
       C63          C  0.9312912  0.9353527  4.8965745    0.00000       Uiso       1.00
       C64          C  0.9007223  0.9290450  4.6849842    0.00000       Uiso       1.00
       C65          C  0.8693838  0.8743721  4.6815748    0.00000       Uiso       1.00
       C66          C  0.8690623  0.8235044  4.8881550    0.00000       Uiso       1.00
       H43          H  0.9009308  0.9644888  4.5311236    0.00000       Uiso       1.00
       H44          H  0.8471502  0.8723767  4.5261288    0.00000       Uiso       1.00
