data_crystal

_cell_length_a    60.20050
_cell_length_b    45.68710
_cell_length_c    7.78280
_cell_angle_alpha 90.00000
_cell_angle_beta  90.00000
_cell_angle_gamma 90.00000

_symmetry_space_group_name_Hall 'P 1'
_symmetry_space_group_name_H-M  'P 1'

loop_
_symmetry_equiv_pos_as_xyz
 'x,y,z'

loop_
_atom_site_label
_atom_site_type_symbol
_atom_site_fract_x
_atom_site_fract_y
_atom_site_fract_z
C          C       0.27014   0.26567   0.12571
C          C       0.72986   0.73433   0.12571
C          C       0.72986   0.26567   0.37429
C          C       0.27014   0.73433   0.37429
C          C       0.26671   0.23751   0.06034
C          C       0.73329   0.76249   0.06034
C          C       0.73329   0.23751   0.43966
C          C       0.26671   0.76249   0.43966
C          C       0.24613   0.22492   0.06076
C          C       0.75387   0.77508   0.06076
C          C       0.75387   0.22492   0.43924
C          C       0.24613   0.77508   0.43924
C          C       0.29197   0.27845   0.13160
C          C       0.70803   0.72155   0.13160
C          C       0.70803   0.27845   0.36840
C          C       0.29197   0.72155   0.36840
C          C       0.31022   0.28920   0.13925
C          C       0.68978   0.71080   0.13925
C          C       0.68978   0.28920   0.36075
C          C       0.31022   0.71080   0.36075
C          C       0.33194   0.30210   0.15132
C          C       0.66806   0.69790   0.15132
C          C       0.66806   0.30210   0.34868
C          C       0.33194   0.69790   0.34868
C          C       0.14894   0.21592   0.22695
C          C       0.85106   0.78408   0.22695
C          C       0.85106   0.21592   0.27304
C          C       0.14894   0.78408   0.27304
C          C       0.12821   0.20248   0.24371
C          C       0.87179   0.79752   0.24371
C          C       0.87179   0.20248   0.25629
C          C       0.12821   0.79752   0.25629
C          C       0.12503   0.17356   0.18792
C          C       0.87497   0.82644   0.18792
C          C       0.87497   0.17356   0.31208
C          C       0.12503   0.82644   0.31208
C          C       0.14295   0.15834   0.11363
C          C       0.85705   0.84166   0.11363
C          C       0.85705   0.15834   0.38637
C          C       0.14295   0.84166   0.38637
C          C       0.16368   0.17184   0.09688
C          C       0.83632   0.82816   0.09688
C          C       0.83632   0.17184   0.40312
C          C       0.16368   0.82816   0.40312
C          C       0.39622   0.34128   0.20796
C          C       0.60378   0.65872   0.20796
C          C       0.60378   0.34128   0.29204
C          C       0.39622   0.65872   0.29204
N          N       0.39990   0.36813   0.16082
N          N       0.60010   0.63187   0.16082
N          N       0.60010   0.36813   0.33918
N          N       0.39990   0.63187   0.33918
C          C       0.42027   0.38424   0.17957
C          C       0.57973   0.61576   0.17957
C          C       0.57973   0.38424   0.32044
C          C       0.42027   0.61576   0.32044
C          C       0.07805   0.08912   0.10135
C          C       0.92195   0.91088   0.10135
C          C       0.92195   0.08912   0.39865
C          C       0.07805   0.91088   0.39865
C          C       0.05873   0.07233   0.11342
C          C       0.94127   0.92767   0.11342
C          C       0.94127   0.07233   0.38659
C          C       0.05873   0.92767   0.38659
C          C       0.04105   0.08094   0.22048
C          C       0.95895   0.91906   0.22048
C          C       0.95895   0.08094   0.27953
C          C       0.04105   0.91906   0.27953
C          C       0.04270   0.10839   0.30279
C          C       0.95730   0.89161   0.30279
C          C       0.95730   0.10839   0.19721
C          C       0.04270   0.89161   0.19721
C          C       0.06151   0.12599   0.28283
C          C       0.93849   0.87401   0.28283
C          C       0.93849   0.12599   0.21717
C          C       0.06151   0.87401   0.21717
C          C       0.47957   0.43754   0.23977
C          C       0.52043   0.56246   0.23977
C          C       0.52043   0.43754   0.26023
C          C       0.47957   0.56246   0.26023
C          C       0.02045   0.03132   0.24861
C          C       0.97955   0.96868   0.24861
C          C       0.97955   0.03132   0.25139
C          C       0.02045   0.96868   0.25139
C          C       0.45977   0.48488   0.25527
C          C       0.54023   0.51512   0.25527
C          C       0.54023   0.48488   0.24473
C          C       0.45977   0.51512   0.24473
H          H       0.15116   0.23814   0.27241
H          H       0.84884   0.76186   0.27241
H          H       0.84884   0.23814   0.22759
H          H       0.15116   0.76186   0.22759
H          H       0.11469   0.21458   0.30201
H          H       0.88531   0.78542   0.30201
H          H       0.88531   0.21458   0.19799
H          H       0.11469   0.78542   0.19799
H          H       0.14097   0.13606   0.06881
H          H       0.85903   0.86394   0.06881
H          H       0.85903   0.13606   0.43119
H          H       0.14097   0.86394   0.43119
H          H       0.17734   0.15983   0.03986
H          H       0.82266   0.84017   0.03986
H          H       0.82266   0.15983   0.46015
H          H       0.17734   0.84017   0.46015
H          H       0.40919   0.32815   0.26508
H          H       0.59081   0.67185   0.26508
H          H       0.59081   0.32815   0.23492
H          H       0.40919   0.67185   0.23492
H          H       0.09160   0.08151   0.02143
H          H       0.90840   0.91849   0.02143
H          H       0.90840   0.08151   0.47857
H          H       0.09160   0.91849   0.47857
H          H       0.05760   0.05279   0.03591
H          H       0.94240   0.94721   0.03591
H          H       0.94240   0.05279   0.46409
H          H       0.05760   0.94721   0.46409
H          H       0.02982   0.11598   0.38898
H          H       0.97018   0.88402   0.38898
H          H       0.97018   0.11598   0.11102
H          H       0.02982   0.88402   0.11102
H          H       0.06205   0.14643   0.35227
H          H       0.93795   0.85357   0.35227
H          H       0.93795   0.14643   0.14773
H          H       0.06205   0.85357   0.14773
H          H       0.44377   0.47469   0.27016
H          H       0.55623   0.52531   0.27016
H          H       0.55623   0.47469   0.22984
H          H       0.44377   0.52531   0.22984
C          C       0.77240   0.76036   0.12660
C          C       0.22760   0.23964   0.12660
C          C       0.22760   0.76036   0.37340
C          C       0.77240   0.23964   0.37340
C          C       0.76942   0.73189   0.19196
C          C       0.23058   0.26811   0.19196
C          C       0.23058   0.73189   0.30804
C          C       0.76942   0.26811   0.30804
C          C       0.74821   0.71896   0.19141
C          C       0.25179   0.28104   0.19141
C          C       0.25179   0.71896   0.30859
C          C       0.74821   0.28104   0.30859
C          C       0.79386   0.77421   0.13301
C          C       0.20614   0.22579   0.13301
C          C       0.20614   0.77421   0.36699
C          C       0.79386   0.22579   0.36699
C          C       0.81182   0.78574   0.14119
C          C       0.18818   0.21426   0.14119
C          C       0.18818   0.78574   0.35881
C          C       0.81182   0.21426   0.35881
C          C       0.83327   0.79940   0.15407
C          C       0.16673   0.20060   0.15407
C          C       0.16673   0.79940   0.34593
C          C       0.83327   0.20060   0.34593
C          C       0.65055   0.71368   0.22484
C          C       0.34945   0.28632   0.22484
C          C       0.34945   0.71368   0.27516
C          C       0.65055   0.28632   0.27516
C          C       0.62958   0.70085   0.24141
C          C       0.37042   0.29915   0.24141
C          C       0.37042   0.70085   0.25860
C          C       0.62958   0.29915   0.25860
C          C       0.62590   0.67208   0.18476
C          C       0.37410   0.32792   0.18476
C          C       0.37410   0.67208   0.31524
C          C       0.62590   0.32792   0.31524
C          C       0.64354   0.65642   0.10960
C          C       0.35646   0.34358   0.10960
C          C       0.35646   0.65642   0.39040
C          C       0.64354   0.34358   0.39040
C          C       0.66449   0.66930   0.09309
C          C       0.33551   0.33070   0.09309
C          C       0.33551   0.66930   0.40692
C          C       0.66449   0.33070   0.40692
C          C       0.89690   0.84034   0.21077
C          C       0.10310   0.15966   0.21077
C          C       0.10310   0.84034   0.28923
C          C       0.89690   0.15966   0.28923
N          N       0.90019   0.86735   0.16509
N          N       0.09981   0.13265   0.16509
N          N       0.09981   0.86735   0.33491
N          N       0.90019   0.13265   0.33491
C          C       0.92042   0.88379   0.18373
C          C       0.07958   0.11621   0.18373
C          C       0.07958   0.88379   0.31627
C          C       0.92042   0.11621   0.31627
C          C       0.57801   0.58866   0.09749
C          C       0.42199   0.41134   0.09749
C          C       0.42199   0.58866   0.40251
C          C       0.57801   0.41134   0.40251
C          C       0.55860   0.57206   0.11037
C          C       0.44140   0.42794   0.11037
C          C       0.44140   0.57206   0.38964
C          C       0.55860   0.42794   0.38964
C          C       0.54103   0.58086   0.21790
C          C       0.45897   0.41914   0.21790
C          C       0.45897   0.58086   0.28210
C          C       0.54103   0.41914   0.28210
C          C       0.54283   0.60838   0.29936
C          C       0.45717   0.39162   0.29936
C          C       0.45717   0.60838   0.20064
C          C       0.54283   0.39162   0.20064
C          C       0.56173   0.62579   0.27863
C          C       0.43827   0.37421   0.27863
C          C       0.43827   0.62579   0.22137
C          C       0.56173   0.37421   0.22137
C          C       0.97956   0.93751   0.24074
C          C       0.02044   0.06249   0.24074
C          C       0.02044   0.93751   0.25926
C          C       0.97956   0.06249   0.25926
C          C       0.52044   0.53129   0.24813
C          C       0.47956   0.46871   0.24813
C          C       0.47956   0.53129   0.25187
C          C       0.52044   0.46871   0.25187
C          C       0.95976   0.98485   0.25568
C          C       0.04024   0.01515   0.25568
C          C       0.04024   0.98485   0.24432
C          C       0.95976   0.01515   0.24432
H          H       0.65317   0.73578   0.27114
H          H       0.34683   0.26422   0.27114
H          H       0.34683   0.73578   0.22886
H          H       0.65317   0.26422   0.22886
H          H       0.61629   0.71328   0.30039
H          H       0.38371   0.28672   0.30039
H          H       0.38371   0.71328   0.19961
H          H       0.61629   0.28672   0.19961
H          H       0.64118   0.63425   0.06409
H          H       0.35882   0.36575   0.06409
H          H       0.35882   0.63425   0.43591
H          H       0.64118   0.36575   0.43591
H          H       0.67792   0.65693   0.03558
H          H       0.32208   0.34307   0.03558
H          H       0.32208   0.65693   0.46442
H          H       0.67792   0.34307   0.46442
H          H       0.91012   0.82740   0.26606
H          H       0.08988   0.17260   0.26606
H          H       0.08988   0.82740   0.23394
H          H       0.91012   0.17260   0.23394
H          H       0.59149   0.58087   0.01751
H          H       0.40851   0.41913   0.01751
H          H       0.40851   0.58087   0.48249
H          H       0.59149   0.41913   0.48249
H          H       0.55735   0.55247   0.03351
H          H       0.44265   0.44753   0.03351
H          H       0.44265   0.55247   0.46649
H          H       0.55735   0.44753   0.46649
H          H       0.53002   0.61613   0.38565
H          H       0.46998   0.38387   0.38565
H          H       0.46998   0.61613   0.11435
H          H       0.53002   0.38387   0.11435
H          H       0.56240   0.64629   0.34743
H          H       0.43760   0.35371   0.34743
H          H       0.43760   0.64629   0.15257
H          H       0.56240   0.35371   0.15257
H          H       0.94376   0.97466   0.27103
H          H       0.05624   0.02534   0.27103
H          H       0.05624   0.97466   0.22897
H          H       0.94376   0.02534   0.22897
F          F       0.78687   0.71689   0.25861
F          F       0.21313   0.28311   0.25861
F          F       0.21313   0.71689   0.24139
F          F       0.78687   0.28311   0.24139
H          H       0.74609   0.69720   0.24424
H          H       0.25391   0.30280   0.24424
H          H       0.25391   0.69720   0.25577
H          H       0.74609   0.30280   0.25577
N          N       0.24605   0.80226   0.00421
N          N       0.75395   0.19774   0.00421
N          N       0.75395   0.80226   0.49579
N          N       0.24605   0.19774   0.49579
S          S       0.27182   0.81261   0.06747
S          S       0.72818   0.18739   0.06747
S          S       0.72818   0.81261   0.43253
S          S       0.27182   0.18739   0.43253
N          N       0.28249   0.77996   0.00493
N          N       0.71751   0.22004   0.00493
N          N       0.71751   0.77996   0.49507
N          N       0.28249   0.22004   0.49507
C          C       0.00000   0.07713   0.25000
C          C       0.00000   0.92287   0.25000
C          C       0.00000   0.01573   0.25000
C          C       0.00000   0.98427   0.25000
H          H       0.00000   0.10074   0.25000
H          H       0.00000   0.89926   0.25000
C          C       0.50000   0.57711   0.25000
C          C       0.50000   0.42289   0.25000
C          C       0.50000   0.51569   0.25000
C          C       0.50000   0.48431   0.25000
H          H       0.50000   0.60072   0.25000
H          H       0.50000   0.39928   0.25000
C          C       0.27014   0.26567   0.62570
C          C       0.72986   0.73433   0.62570
C          C       0.72986   0.26567   0.87429
C          C       0.27014   0.73433   0.87429
C          C       0.26671   0.23751   0.56034
C          C       0.73329   0.76249   0.56034
C          C       0.73329   0.23751   0.93966
C          C       0.26671   0.76249   0.93966
C          C       0.24613   0.22492   0.56076
C          C       0.75387   0.77508   0.56076
C          C       0.75387   0.22492   0.93924
C          C       0.24613   0.77508   0.93924
C          C       0.29197   0.27845   0.63160
C          C       0.70803   0.72155   0.63160
C          C       0.70803   0.27845   0.86840
C          C       0.29197   0.72155   0.86840
C          C       0.31022   0.28920   0.63925
C          C       0.68978   0.71080   0.63925
C          C       0.68978   0.28920   0.86075
C          C       0.31022   0.71080   0.86075
C          C       0.33194   0.30210   0.65132
C          C       0.66806   0.69790   0.65132
C          C       0.66806   0.30210   0.84868
C          C       0.33194   0.69790   0.84868
C          C       0.14894   0.21592   0.72696
C          C       0.85106   0.78408   0.72696
C          C       0.85106   0.21592   0.77304
C          C       0.14894   0.78408   0.77304
C          C       0.12821   0.20248   0.74371
C          C       0.87179   0.79752   0.74371
C          C       0.87179   0.20248   0.75629
C          C       0.12821   0.79752   0.75629
C          C       0.12503   0.17356   0.68792
C          C       0.87497   0.82644   0.68792
C          C       0.87497   0.17356   0.81208
C          C       0.12503   0.82644   0.81208
C          C       0.14295   0.15834   0.61364
C          C       0.85705   0.84166   0.61364
C          C       0.85705   0.15834   0.88637
C          C       0.14295   0.84166   0.88637
C          C       0.16368   0.17184   0.59688
C          C       0.83632   0.82816   0.59688
C          C       0.83632   0.17184   0.90312
C          C       0.16368   0.82816   0.90312
C          C       0.39622   0.34128   0.70796
C          C       0.60378   0.65872   0.70796
C          C       0.60378   0.34128   0.79204
C          C       0.39622   0.65872   0.79204
N          N       0.39990   0.36813   0.66082
N          N       0.60010   0.63187   0.66082
N          N       0.60010   0.36813   0.83918
N          N       0.39990   0.63187   0.83918
C          C       0.42027   0.38424   0.67956
C          C       0.57973   0.61576   0.67956
C          C       0.57973   0.38424   0.82044
C          C       0.42027   0.61576   0.82044
C          C       0.07805   0.08912   0.60135
C          C       0.92195   0.91088   0.60135
C          C       0.92195   0.08912   0.89866
C          C       0.07805   0.91088   0.89866
C          C       0.05873   0.07233   0.61342
C          C       0.94127   0.92767   0.61342
C          C       0.94127   0.07233   0.88658
C          C       0.05873   0.92767   0.88658
C          C       0.04105   0.08094   0.72047
C          C       0.95895   0.91906   0.72047
C          C       0.95895   0.08094   0.77953
C          C       0.04105   0.91906   0.77953
C          C       0.04270   0.10839   0.80279
C          C       0.95730   0.89161   0.80279
C          C       0.95730   0.10839   0.69721
C          C       0.04270   0.89161   0.69721
C          C       0.06151   0.12599   0.78283
C          C       0.93849   0.87401   0.78283
C          C       0.93849   0.12599   0.71717
C          C       0.06151   0.87401   0.71717
C          C       0.47957   0.43754   0.73977
C          C       0.52043   0.56246   0.73977
C          C       0.52043   0.43754   0.76023
C          C       0.47957   0.56246   0.76023
C          C       0.02045   0.03132   0.74861
C          C       0.97955   0.96868   0.74861
C          C       0.97955   0.03132   0.75139
C          C       0.02045   0.96868   0.75139
C          C       0.45977   0.48488   0.75527
C          C       0.54023   0.51512   0.75527
C          C       0.54023   0.48488   0.74473
C          C       0.45977   0.51512   0.74473
H          H       0.15116   0.23814   0.77241
H          H       0.84884   0.76186   0.77241
H          H       0.84884   0.23814   0.72759
H          H       0.15116   0.76186   0.72759
H          H       0.11469   0.21458   0.80201
H          H       0.88531   0.78542   0.80201
H          H       0.88531   0.21458   0.69799
H          H       0.11469   0.78542   0.69799
H          H       0.14097   0.13606   0.56881
H          H       0.85903   0.86394   0.56881
H          H       0.85903   0.13606   0.93119
H          H       0.14097   0.86394   0.93119
H          H       0.17734   0.15983   0.53986
H          H       0.82266   0.84017   0.53986
H          H       0.82266   0.15983   0.96014
H          H       0.17734   0.84017   0.96014
H          H       0.40919   0.32815   0.76508
H          H       0.59081   0.67185   0.76508
H          H       0.59081   0.32815   0.73492
H          H       0.40919   0.67185   0.73492
H          H       0.09160   0.08151   0.52143
H          H       0.90840   0.91849   0.52143
H          H       0.90840   0.08151   0.97857
H          H       0.09160   0.91849   0.97857
H          H       0.05760   0.05279   0.53591
H          H       0.94240   0.94721   0.53591
H          H       0.94240   0.05279   0.96409
H          H       0.05760   0.94721   0.96409
H          H       0.02982   0.11598   0.88898
H          H       0.97018   0.88402   0.88898
H          H       0.97018   0.11598   0.61102
H          H       0.02982   0.88402   0.61102
H          H       0.06205   0.14643   0.85227
H          H       0.93795   0.85357   0.85227
H          H       0.93795   0.14643   0.64773
H          H       0.06205   0.85357   0.64773
H          H       0.44377   0.47469   0.77016
H          H       0.55623   0.52531   0.77016
H          H       0.55623   0.47469   0.72984
H          H       0.44377   0.52531   0.72984
C          C       0.77240   0.76036   0.62660
C          C       0.22760   0.23964   0.62660
C          C       0.22760   0.76036   0.87340
C          C       0.77240   0.23964   0.87340
C          C       0.76942   0.73189   0.69197
C          C       0.23058   0.26811   0.69197
C          C       0.23058   0.73189   0.80804
C          C       0.76942   0.26811   0.80804
C          C       0.74821   0.71896   0.69141
C          C       0.25179   0.28104   0.69141
C          C       0.25179   0.71896   0.80859
C          C       0.74821   0.28104   0.80859
C          C       0.79386   0.77421   0.63301
C          C       0.20614   0.22579   0.63301
C          C       0.20614   0.77421   0.86698
C          C       0.79386   0.22579   0.86698
C          C       0.81182   0.78574   0.64119
C          C       0.18818   0.21426   0.64119
C          C       0.18818   0.78574   0.85881
C          C       0.81182   0.21426   0.85881
C          C       0.83327   0.79940   0.65407
C          C       0.16673   0.20060   0.65407
C          C       0.16673   0.79940   0.84593
C          C       0.83327   0.20060   0.84593
C          C       0.65055   0.71368   0.72484
C          C       0.34945   0.28632   0.72484
C          C       0.34945   0.71368   0.77516
C          C       0.65055   0.28632   0.77516
C          C       0.62958   0.70085   0.74140
C          C       0.37042   0.29915   0.74140
C          C       0.37042   0.70085   0.75860
C          C       0.62958   0.29915   0.75860
C          C       0.62590   0.67208   0.68476
C          C       0.37410   0.32792   0.68476
C          C       0.37410   0.67208   0.81524
C          C       0.62590   0.32792   0.81524
C          C       0.64354   0.65642   0.60960
C          C       0.35646   0.34358   0.60960
C          C       0.35646   0.65642   0.89040
C          C       0.64354   0.34358   0.89040
C          C       0.66449   0.66930   0.59308
C          C       0.33551   0.33070   0.59308
C          C       0.33551   0.66930   0.90692
C          C       0.66449   0.33070   0.90692
C          C       0.89690   0.84034   0.71078
C          C       0.10310   0.15966   0.71078
C          C       0.10310   0.84034   0.78922
C          C       0.89690   0.15966   0.78922
N          N       0.90019   0.86735   0.66509
N          N       0.09981   0.13265   0.66509
N          N       0.09981   0.86735   0.83491
N          N       0.90019   0.13265   0.83491
C          C       0.92042   0.88379   0.68373
C          C       0.07958   0.11621   0.68373
C          C       0.07958   0.88379   0.81627
C          C       0.92042   0.11621   0.81627
C          C       0.57801   0.58866   0.59749
C          C       0.42199   0.41134   0.59749
C          C       0.42199   0.58866   0.90250
C          C       0.57801   0.41134   0.90250
C          C       0.55860   0.57206   0.61037
C          C       0.44140   0.42794   0.61037
C          C       0.44140   0.57206   0.88963
C          C       0.55860   0.42794   0.88963
C          C       0.54103   0.58086   0.71790
C          C       0.45897   0.41914   0.71790
C          C       0.45897   0.58086   0.78210
C          C       0.54103   0.41914   0.78210
C          C       0.54283   0.60838   0.79936
C          C       0.45717   0.39162   0.79936
C          C       0.45717   0.60838   0.70064
C          C       0.54283   0.39162   0.70064
C          C       0.56173   0.62579   0.77863
C          C       0.43827   0.37421   0.77863
C          C       0.43827   0.62579   0.72137
C          C       0.56173   0.37421   0.72137
C          C       0.97956   0.93751   0.74074
C          C       0.02044   0.06249   0.74074
C          C       0.02044   0.93751   0.75926
C          C       0.97956   0.06249   0.75926
C          C       0.52044   0.53129   0.74813
C          C       0.47956   0.46871   0.74813
C          C       0.47956   0.53129   0.75186
C          C       0.52044   0.46871   0.75186
C          C       0.95976   0.98485   0.75568
C          C       0.04024   0.01515   0.75568
C          C       0.04024   0.98485   0.74432
C          C       0.95976   0.01515   0.74432
H          H       0.65317   0.73578   0.77113
H          H       0.34683   0.26422   0.77113
H          H       0.34683   0.73578   0.72886
H          H       0.65317   0.26422   0.72886
H          H       0.61629   0.71328   0.80038
H          H       0.38371   0.28672   0.80038
H          H       0.38371   0.71328   0.69961
H          H       0.61629   0.28672   0.69961
H          H       0.64118   0.63425   0.56408
H          H       0.35882   0.36575   0.56408
H          H       0.35882   0.63425   0.93592
H          H       0.64118   0.36575   0.93592
H          H       0.67792   0.65693   0.53558
H          H       0.32208   0.34307   0.53558
H          H       0.32208   0.65693   0.96442
H          H       0.67792   0.34307   0.96442
H          H       0.91012   0.82740   0.76606
H          H       0.08988   0.17260   0.76606
H          H       0.08988   0.82740   0.73394
H          H       0.91012   0.17260   0.73394
H          H       0.59149   0.58087   0.51751
H          H       0.40851   0.41913   0.51751
H          H       0.40851   0.58087   0.98249
H          H       0.59149   0.41913   0.98249
H          H       0.55735   0.55247   0.53351
H          H       0.44265   0.44753   0.53351
H          H       0.44265   0.55247   0.96649
H          H       0.55735   0.44753   0.96649
H          H       0.53002   0.61613   0.88565
H          H       0.46998   0.38387   0.88565
H          H       0.46998   0.61613   0.61435
H          H       0.53002   0.38387   0.61435
H          H       0.56240   0.64629   0.84743
H          H       0.43760   0.35371   0.84743
H          H       0.43760   0.64629   0.65257
H          H       0.56240   0.35371   0.65257
H          H       0.94376   0.97466   0.77103
H          H       0.05624   0.02534   0.77103
H          H       0.05624   0.97466   0.72898
H          H       0.94376   0.02534   0.72898
F          F       0.78687   0.71689   0.75861
F          F       0.21313   0.28311   0.75861
F          F       0.21313   0.71689   0.74138
F          F       0.78687   0.28311   0.74138
H          H       0.74609   0.69720   0.74423
H          H       0.25391   0.30280   0.74423
H          H       0.25391   0.69720   0.75577
H          H       0.74609   0.30280   0.75577
N          N       0.24605   0.80226   0.50421
N          N       0.75395   0.19774   0.50421
N          N       0.75395   0.80226   0.99579
N          N       0.24605   0.19774   0.99579
S          S       0.27182   0.81261   0.56747
S          S       0.72818   0.18739   0.56747
S          S       0.72818   0.81261   0.93253
S          S       0.27182   0.18739   0.93253
N          N       0.28249   0.77996   0.50493
N          N       0.71751   0.22004   0.50493
N          N       0.71751   0.77996   0.99507
N          N       0.28249   0.22004   0.99507
C          C       0.00000   0.07713   0.75000
C          C       0.00000   0.92287   0.75000
C          C       0.00000   0.01573   0.75000
C          C       0.00000   0.98427   0.75000
H          H       0.00000   0.10074   0.75000
H          H       0.00000   0.89926   0.75000
C          C       0.50000   0.57711   0.75000
C          C       0.50000   0.42289   0.75000
C          C       0.50000   0.51569   0.75000
C          C       0.50000   0.48431   0.75000
H          H       0.50000   0.60072   0.75000
H          H       0.50000   0.39928   0.75000
