data_crystal

_cell_length_a    29.83000
_cell_length_b    29.83000
_cell_length_c    7.84000
_cell_angle_alpha 90.00000
_cell_angle_beta  90.00000
_cell_angle_gamma 60.00000

_symmetry_space_group_name_Hall 'P 1'
_symmetry_space_group_name_H-M  'P 1'

loop_
_symmetry_equiv_pos_as_xyz
 'x,y,z'

loop_
_atom_site_label
_atom_site_type_symbol
_atom_site_fract_x
_atom_site_fract_y
_atom_site_fract_z
H          H       0.25542   0.77087   0.00000
C          C       0.36075   0.45967   0.00000
H          H       0.45562   0.28758   0.00000
C          C       0.41651   0.59874   0.00000
H          H       0.60510   0.13783   0.00000
C          C       0.36075   0.62661   0.00000
H          H       0.60500   0.28759   0.00000
C          C       0.44400   0.62657   0.00000
H          H       0.52175   0.37077   0.00000
C          C       0.41651   0.68188   0.00000
H          H       0.45562   0.20416   0.00000
C          C       0.36075   0.70975   0.00000
H          H       0.68835   0.13812   0.00000
C          C       0.33287   0.68212   0.00000
H          H       0.48815   0.43817   0.00000
C          C       0.49977   0.51523   0.00000
H          H       0.28872   0.53767   0.00000
C          C       0.19424   0.95992   0.00000
H          H       0.33864   0.43764   0.00000
C          C       0.16636   0.93195   0.00000
H          H       0.48815   0.60464   0.00000
C          C       0.19424   0.87645   0.00000
H          H       0.43872   0.70381   0.00000
C          C       0.24961   0.84877   0.00000
H          H       0.28872   0.70428   0.00000
C          C       0.27749   0.87641   0.00000
H          H       0.51448   0.51720   0.37023
C          C       0.24961   0.93225   0.00000
H          H       0.51448   0.47307   0.03477
C          C       0.27749   0.95988   0.00000
H          H       0.51448   0.53335   0.09500
C          C       0.11059   0.95983   0.00000
H          H       0.35494   0.97121   0.00000
C          C       0.27749   0.04302   0.00000
H          H       0.25542   0.17062   0.00000
C          C       0.33287   0.01534   0.00000
H          H       0.20547   0.12102   0.00000
C          C       0.36075   0.04331   0.00000
H          H       0.52184   0.97127   0.00000
C          C       0.33287   0.09881   0.00000
H          H       0.57179   0.02087   0.00000
C          C       0.27749   0.12649   0.00000
H          H       0.42193   0.17087   0.00000
C          C       0.24961   0.09886   0.00000
H          H       0.02180   0.03764   0.00000
C          C       0.44400   0.04327   0.00000
H          H       0.85516   0.20413   0.00000
C          C       0.41651   0.09858   0.00000
H          H       0.75534   0.25397   0.00000
C          C       0.49977   0.01539   0.00000
H          H       0.75521   0.10478   0.00000
C          C       0.52765   0.04303   0.00000
H          H       0.95380   0.13165   0.36588
C          C       0.49977   0.09887   0.00000
H          H       0.98177   0.10360   0.07383
C          C       0.44400   0.12674   0.00000
H          H       0.91954   0.16599   0.06029
C          C       0.44400   0.95979   0.00000
H          H       0.17213   0.00405   0.00000
C          C       0.02757   0.95977   0.00000
H          H       0.17226   0.85429   0.00000
C          C       0.99969   0.01561   0.00000
H          H       0.32164   0.85425   0.00000
C          C       0.94431   0.04329   0.00000
H          H       0.32164   0.93772   0.00000
C          C       0.91643   0.01532   0.00000
H          H       0.08852   0.00395   0.00000
C          C       0.94431   0.95981   0.00000
H          H       0.44893   0.94510   0.36593
C          C       0.99969   0.93214   0.00000
H          H       0.42117   0.94533   0.07458
C          C       0.86106   0.12647   0.00000
H          H       0.48372   0.94482   0.05949
C          C       0.83318   0.09883   0.00000
H          H       0.92234   0.93766   0.00000
C          C       0.83318   0.18197   0.00000
H          H       0.02176   0.88801   0.00000
C          C       0.77742   0.20984   0.00000
C          C       0.27749   0.79293   0.00000
C          C       0.74992   0.18202   0.00000
C          C       0.49977   0.26548   0.00000
C          C       0.77742   0.12671   0.00000
C          C       0.52765   0.20964   0.00000
C          C       0.94431   0.12642   0.00000
C          C       0.58302   0.18196   0.00000
N          N       0.69416   0.20989   0.00000
C          C       0.61090   0.20993   0.00000
N          N       0.44400   0.37649   0.00000
C          C       0.58302   0.26543   0.00000
N          N       0.44400   0.54310   0.00000
C          C       0.52765   0.29311   0.00000
N          N       0.33287   0.76526   0.00000
C          C       0.49977   0.34862   0.00000
N          N       0.24961   0.01538   0.00000
C          C       0.49977   0.18201   0.00000
N          N       0.41651   0.01544   0.00000
C          C       0.66628   0.18225   0.00000
N          N       0.52765   0.12650   0.00000
C          C       0.41651   0.43180   0.00000
N          N       0.08333   0.93190   0.00000
C          C       0.44400   0.45996   0.00000
N          N       0.91643   0.09879   0.00000
C          C       0.41651   0.51527   0.00000
O          O       0.33287   0.59865   0.00000
C          C       0.36075   0.54314   0.00000
O          O       0.36075   0.12645   0.00000
C          C       0.33287   0.51551   0.00000
O          O       0.86106   0.04300   0.00000
H          H       0.25542   0.77087   0.50000
C          C       0.36075   0.45967   0.50000
H          H       0.45562   0.28758   0.50000
C          C       0.41651   0.59874   0.50000
H          H       0.60510   0.13783   0.50000
C          C       0.36075   0.62661   0.50000
H          H       0.60500   0.28759   0.50000
C          C       0.44400   0.62657   0.50000
H          H       0.52175   0.37077   0.50000
C          C       0.41651   0.68188   0.50000
H          H       0.45562   0.20416   0.50000
C          C       0.36075   0.70975   0.50000
H          H       0.68835   0.13812   0.50000
C          C       0.33287   0.68212   0.50000
H          H       0.48815   0.43817   0.50000
C          C       0.49977   0.51523   0.50000
H          H       0.28872   0.53767   0.50000
C          C       0.19424   0.95992   0.50000
H          H       0.33864   0.43764   0.50000
C          C       0.16636   0.93195   0.50000
H          H       0.48815   0.60464   0.50000
C          C       0.19424   0.87645   0.50000
H          H       0.43872   0.70381   0.50000
C          C       0.24961   0.84877   0.50000
H          H       0.28872   0.70428   0.50000
C          C       0.27749   0.87641   0.50000
H          H       0.51448   0.51720   0.87023
C          C       0.24961   0.93225   0.50000
H          H       0.51448   0.47307   0.53477
C          C       0.27749   0.95988   0.50000
H          H       0.51448   0.53335   0.59500
C          C       0.11059   0.95983   0.50000
H          H       0.35494   0.97121   0.50000
C          C       0.27749   0.04302   0.50000
H          H       0.25542   0.17062   0.50000
C          C       0.33287   0.01534   0.50000
H          H       0.20547   0.12102   0.50000
C          C       0.36075   0.04331   0.50000
H          H       0.52184   0.97127   0.50000
C          C       0.33287   0.09881   0.50000
H          H       0.57179   0.02087   0.50000
C          C       0.27749   0.12649   0.50000
H          H       0.42193   0.17087   0.50000
C          C       0.24961   0.09886   0.50000
H          H       0.02180   0.03764   0.50000
C          C       0.44400   0.04327   0.50000
H          H       0.85516   0.20413   0.50000
C          C       0.41651   0.09858   0.50000
H          H       0.75534   0.25397   0.50000
C          C       0.49977   0.01539   0.50000
H          H       0.75521   0.10478   0.50000
C          C       0.52765   0.04303   0.50000
H          H       0.95380   0.13165   0.86588
C          C       0.49977   0.09887   0.50000
H          H       0.98177   0.10360   0.57383
C          C       0.44400   0.12674   0.50000
H          H       0.91954   0.16599   0.56029
C          C       0.44400   0.95979   0.50000
H          H       0.17213   0.00405   0.50000
C          C       0.02757   0.95977   0.50000
H          H       0.17226   0.85429   0.50000
C          C       0.99969   0.01561   0.50000
H          H       0.32164   0.85425   0.50000
C          C       0.94431   0.04329   0.50000
H          H       0.32164   0.93772   0.50000
C          C       0.91643   0.01532   0.50000
H          H       0.08852   0.00395   0.50000
C          C       0.94431   0.95981   0.50000
H          H       0.44893   0.94510   0.86593
C          C       0.99969   0.93214   0.50000
H          H       0.42117   0.94533   0.57457
C          C       0.86106   0.12647   0.50000
H          H       0.48372   0.94482   0.55949
C          C       0.83318   0.09883   0.50000
H          H       0.92234   0.93766   0.50000
C          C       0.83318   0.18197   0.50000
H          H       0.02176   0.88801   0.50000
C          C       0.77742   0.20984   0.50000
C          C       0.27749   0.79293   0.50000
C          C       0.74992   0.18202   0.50000
C          C       0.49977   0.26548   0.50000
C          C       0.77742   0.12671   0.50000
C          C       0.52765   0.20964   0.50000
C          C       0.94431   0.12642   0.50000
C          C       0.58302   0.18196   0.50000
N          N       0.69416   0.20989   0.50000
C          C       0.61090   0.20993   0.50000
N          N       0.44400   0.37649   0.50000
C          C       0.58302   0.26543   0.50000
N          N       0.44400   0.54310   0.50000
C          C       0.52765   0.29311   0.50000
N          N       0.33287   0.76526   0.50000
C          C       0.49977   0.34862   0.50000
N          N       0.24961   0.01538   0.50000
C          C       0.49977   0.18201   0.50000
N          N       0.41651   0.01544   0.50000
C          C       0.66628   0.18225   0.50000
N          N       0.52765   0.12650   0.50000
C          C       0.41651   0.43180   0.50000
N          N       0.08333   0.93190   0.50000
C          C       0.44400   0.45996   0.50000
N          N       0.91643   0.09879   0.50000
C          C       0.41651   0.51527   0.50000
O          O       0.33287   0.59865   0.50000
C          C       0.36075   0.54314   0.50000
O          O       0.36075   0.12645   0.50000
C          C       0.33287   0.51551   0.50000
O          O       0.86106   0.04300   0.50000
