data_crystal

_cell_length_a    56.01200
_cell_length_b    56.01200
_cell_length_c    7.16000
_cell_angle_alpha 90.00000
_cell_angle_beta  90.00000
_cell_angle_gamma 120.00000

_space_group_name_Hall 'P 1'
_space_group_name_H-M_alt  'P 1'

loop_
_symmetry_equiv_pos_as_xyz
'x,y,z'

loop_
_atom_site_label
_atom_site_type_symbol
_atom_site_fract_x
_atom_site_fract_y
_atom_site_fract_z
C    C    0.322260    0.636140    0.900000
C    C    0.363860    0.686120    0.900000
C    C    0.313880    0.677740    0.900000
C    C    0.677740    0.363860    0.900000
C    C    0.636140    0.313880    0.900000
C    C    0.686120    0.322260    0.900000
C    C    0.677740    0.363860    0.100000
C    C    0.636140    0.313880    0.100000
C    C    0.686120    0.322260    0.100000
C    C    0.322260    0.636140    0.100000
C    C    0.363860    0.686120    0.100000
C    C    0.313880    0.677740    0.100000
N    N    0.353150    0.656100    0.914360
N    N    0.343900    0.697050    0.914360
N    N    0.302950    0.646850    0.914360
N    N    0.646850    0.343900    0.914360
N    N    0.656100    0.302950    0.914360
N    N    0.697050    0.353150    0.914360
N    N    0.646850    0.343900    0.085640
N    N    0.656100    0.302950    0.085640
N    N    0.697050    0.353150    0.085640
N    N    0.353150    0.656100    0.085640
N    N    0.343900    0.697050    0.085640
N    N    0.302950    0.646850    0.085640
O    O    0.311440    0.605350    0.889230
O    O    0.394650    0.706090    0.889230
O    O    0.293910    0.688560    0.889230
O    O    0.688560    0.394650    0.889230
O    O    0.605350    0.293910    0.889230
O    O    0.706090    0.311440    0.889230
O    O    0.688560    0.394650    0.110770
O    O    0.605350    0.293910    0.110770
O    O    0.706090    0.311440    0.110770
O    O    0.311440    0.605350    0.110770
O    O    0.394650    0.706090    0.110770
O    O    0.293910    0.688560    0.110770
C    C    0.331290    0.594490    0.892740
C    C    0.405510    0.736800    0.892740
C    C    0.263200    0.668710    0.892740
C    C    0.668710    0.405510    0.892740
C    C    0.594490    0.263200    0.892740
C    C    0.736800    0.331290    0.892740
C    C    0.668710    0.405510    0.107260
C    C    0.594490    0.263200    0.107260
C    C    0.736800    0.331290    0.107260
C    C    0.331290    0.594490    0.107260
C    C    0.405510    0.736800    0.107260
C    C    0.263200    0.668710    0.107260
C    C    0.320460    0.563710    0.881969
C    C    0.436290    0.756750    0.881969
C    C    0.243250    0.679540    0.881969
C    C    0.679540    0.436290    0.881969
C    C    0.563710    0.243250    0.881969
C    C    0.756750    0.320460    0.881969
C    C    0.679540    0.436290    0.118029
C    C    0.563710    0.243250    0.118029
C    C    0.756750    0.320460    0.118029
C    C    0.320460    0.563710    0.118029
C    C    0.436290    0.756750    0.118029
C    C    0.243250    0.679540    0.118029
C    C    0.340520    0.552880    0.885560
C    C    0.447120    0.787640    0.885560
C    C    0.212360    0.659480    0.885560
C    C    0.659480    0.447120    0.885560
C    C    0.552880    0.212360    0.885560
C    C    0.787640    0.340520    0.885560
C    C    0.659480    0.447120    0.114440
C    C    0.552880    0.212360    0.114440
C    C    0.787640    0.340520    0.114440
C    C    0.340520    0.552880    0.114440
C    C    0.447120    0.787640    0.114440
C    C    0.212360    0.659480    0.114440
C    C    0.371410    0.572850    0.899920
C    C    0.427150    0.798560    0.899920
C    C    0.201440    0.628590    0.899920
C    C    0.628590    0.427150    0.899920
C    C    0.572850    0.201440    0.899920
C    C    0.798560    0.371410    0.899920
C    C    0.628590    0.427150    0.100080
C    C    0.572850    0.201440    0.100080
C    C    0.798560    0.371410    0.100080
C    C    0.371410    0.572850    0.100080
C    C    0.427150    0.798560    0.100080
C    C    0.201440    0.628590    0.100080
C    C    0.382230    0.603630    0.910690
C    C    0.396370    0.778600    0.910690
C    C    0.221400    0.617770    0.910690
C    C    0.617770    0.396370    0.910690
C    C    0.603630    0.221400    0.910690
C    C    0.778600    0.382230    0.910690
C    C    0.617770    0.396370    0.089310
C    C    0.603630    0.221400    0.089310
C    C    0.778600    0.382230    0.089310
C    C    0.382230    0.603630    0.089310
C    C    0.396370    0.778600    0.089310
C    C    0.221400    0.617770    0.089310
C    C    0.362250    0.614680    0.907180
C    C    0.385320    0.747570    0.907180
C    C    0.252430    0.637750    0.907180
C    C    0.637750    0.385320    0.907180
C    C    0.614680    0.252430    0.907180
C    C    0.747570    0.362250    0.907180
C    C    0.637750    0.385320    0.092820
C    C    0.614680    0.252430    0.092820
C    C    0.747570    0.362250    0.092820
C    C    0.362250    0.614680    0.092820
C    C    0.385320    0.747570    0.092820
C    C    0.252430    0.637750    0.092820
C    C    0.391250    0.561980    0.903430
C    C    0.438020    0.829270    0.903430
C    C    0.170730    0.608750    0.903430
C    C    0.608750    0.438020    0.903430
C    C    0.561980    0.170730    0.903430
C    C    0.829270    0.391250    0.903430
C    C    0.608750    0.438020    0.096570
C    C    0.561980    0.170730    0.096570
C    C    0.829270    0.391250    0.096570
C    C    0.391250    0.561980    0.096570
C    C    0.438020    0.829270    0.096570
C    C    0.170730    0.608750    0.096570
N    N    0.421920    0.581910    0.917709
N    N    0.418090    0.840010    0.917709
N    N    0.159990    0.578080    0.917709
N    N    0.578080    0.418090    0.917709
N    N    0.581910    0.159990    0.917709
N    N    0.840010    0.421920    0.917709
N    N    0.578080    0.418090    0.082291
N    N    0.581910    0.159990    0.082291
N    N    0.840010    0.421920    0.082291
N    N    0.421920    0.581910    0.082291
N    N    0.418090    0.840010    0.082291
N    N    0.159990    0.578080    0.082291
C    C    0.441980    0.571090    0.921300
C    C    0.428910    0.870890    0.921300
C    C    0.129110    0.558020    0.921300
C    C    0.558020    0.428910    0.921300
C    C    0.571090    0.129110    0.921300
C    C    0.870890    0.441980    0.921300
C    C    0.558020    0.428910    0.078700
C    C    0.571090    0.129110    0.078700
C    C    0.870890    0.441980    0.078700
C    C    0.441980    0.571090    0.078700
C    C    0.428910    0.870890    0.078700
C    C    0.129110    0.558020    0.078700
C    C    0.431160    0.540300    0.910529
C    C    0.459700    0.890860    0.910529
C    C    0.109140    0.568840    0.910529
C    C    0.568840    0.459700    0.910529
C    C    0.540300    0.109140    0.910529
C    C    0.890860    0.431160    0.910529
C    C    0.568840    0.459700    0.089471
C    C    0.540300    0.109140    0.089471
C    C    0.890860    0.431160    0.089471
C    C    0.431160    0.540300    0.089471
C    C    0.459700    0.890860    0.089471
C    C    0.109140    0.568840    0.089471
C    C    0.451010    0.529440    0.914041
C    C    0.470560    0.921570    0.914041
C    C    0.078430    0.548990    0.914041
C    C    0.548990    0.470560    0.914041
C    C    0.529440    0.078430    0.914041
C    C    0.921570    0.451010    0.914041
C    C    0.548990    0.470560    0.085959
C    C    0.529440    0.078430    0.085959
C    C    0.921570    0.451010    0.085959
C    C    0.451010    0.529440    0.085959
C    C    0.470560    0.921570    0.085959
C    C    0.078430    0.548990    0.085959
C    C    0.481890    0.549400    0.928399
C    C    0.450600    0.932490    0.928399
C    C    0.067510    0.518110    0.928399
C    C    0.518110    0.450600    0.928399
C    C    0.549400    0.067510    0.928399
C    C    0.932490    0.481890    0.928399
C    C    0.518110    0.450600    0.071601
C    C    0.549400    0.067510    0.071601
C    C    0.932490    0.481890    0.071601
C    C    0.481890    0.549400    0.071601
C    C    0.450600    0.932490    0.071601
C    C    0.067510    0.518110    0.071601
C    C    0.492710    0.580190    0.939170
C    C    0.419810    0.912520    0.939170
C    C    0.087480    0.507290    0.939170
C    C    0.507290    0.419810    0.939170
C    C    0.580190    0.087480    0.939170
C    C    0.912520    0.492710    0.939170
C    C    0.507290    0.419810    0.060830
C    C    0.580190    0.087480    0.060830
C    C    0.912520    0.492710    0.060830
C    C    0.492710    0.580190    0.060830
C    C    0.419810    0.912520    0.060830
C    C    0.087480    0.507290    0.060830
C    C    0.472650    0.591010    0.935580
C    C    0.408990    0.881640    0.935580
C    C    0.118360    0.527350    0.935580
C    C    0.527350    0.408990    0.935580
C    C    0.591010    0.118360    0.935580
C    C    0.881640    0.472650    0.935580
C    C    0.527350    0.408990    0.064420
C    C    0.591010    0.118360    0.064420
C    C    0.881640    0.472650    0.064420
C    C    0.472650    0.591010    0.064420
C    C    0.408990    0.881640    0.064420
C    C    0.118360    0.527350    0.064420
C    C    0.501740    0.538540    0.931909
C    C    0.461460    0.963200    0.931909
C    C    0.036800    0.498260    0.931909
C    C    0.498260    0.461460    0.931909
C    C    0.538540    0.036800    0.931909
C    C    0.963200    0.501740    0.931909
C    C    0.498260    0.461460    0.068089
C    C    0.538540    0.036800    0.068089
C    C    0.963200    0.501740    0.068089
C    C    0.501740    0.538540    0.068089
C    C    0.461460    0.963200    0.068089
C    C    0.036800    0.498260    0.068089
O    O    0.532620    0.558500    0.946270
O    O    0.441500    0.974120    0.946270
O    O    0.025880    0.467380    0.946270
O    O    0.467380    0.441500    0.946270
O    O    0.558500    0.025880    0.946270
O    O    0.974120    0.532620    0.946270
O    O    0.467380    0.441500    0.053730
O    O    0.558500    0.025880    0.053730
O    O    0.974120    0.532620    0.053730
O    O    0.532620    0.558500    0.053730
O    O    0.441500    0.974120    0.053730
O    O    0.025880    0.467380    0.053730
N    N    0.490910    0.507760    0.921140
N    N    0.492240    0.983150    0.921140
N    N    0.016850    0.509090    0.921140
N    N    0.509090    0.492240    0.921140
N    N    0.507760    0.016850    0.921140
N    N    0.983150    0.490910    0.921140
N    N    0.509090    0.492240    0.078860
N    N    0.507760    0.016850    0.078860
N    N    0.983150    0.490910    0.078860
N    N    0.490910    0.507760    0.078860
N    N    0.492240    0.983150    0.078860
N    N    0.016850    0.509090    0.078860
H    H    0.466150    0.491710    0.911130
H    H    0.508290    0.974440    0.911130
H    H    0.025560    0.533850    0.911130
H    H    0.533850    0.508290    0.911130
H    H    0.491710    0.025560    0.911130
H    H    0.974440    0.466150    0.911130
H    H    0.533850    0.508290    0.088870
H    H    0.491710    0.025560    0.088870
H    H    0.974440    0.466150    0.088870
H    H    0.466150    0.491710    0.088870
H    H    0.508290    0.974440    0.088870
H    H    0.025560    0.533850    0.088870
H    H    0.295040    0.547230    0.870140
H    H    0.452770    0.747810    0.870140
H    H    0.252190    0.704960    0.870140
H    H    0.704960    0.452770    0.870140
H    H    0.547230    0.252190    0.870140
H    H    0.747810    0.295040    0.870140
H    H    0.704960    0.452770    0.129860
H    H    0.547230    0.252190    0.129860
H    H    0.747810    0.295040    0.129860
H    H    0.295040    0.547230    0.129860
H    H    0.452770    0.747810    0.129860
H    H    0.252190    0.704960    0.129860
H    H    0.331620    0.527460    0.876670
H    H    0.472540    0.804160    0.876670
H    H    0.195840    0.668380    0.876670
H    H    0.668380    0.472540    0.876670
H    H    0.527460    0.195840    0.876670
H    H    0.804160    0.331620    0.876670
H    H    0.668380    0.472540    0.123330
H    H    0.527460    0.195840    0.123330
H    H    0.804160    0.331620    0.123330
H    H    0.331620    0.527460    0.123330
H    H    0.472540    0.804160    0.123330
H    H    0.195840    0.668380    0.123330
H    H    0.407660    0.620110    0.922520
H    H    0.379890    0.787550    0.922520
H    H    0.212450    0.592340    0.922520
H    H    0.592340    0.379890    0.922520
H    H    0.620110    0.212450    0.922520
H    H    0.787550    0.407660    0.922520
H    H    0.592340    0.379890    0.077480
H    H    0.620110    0.212450    0.077480
H    H    0.787550    0.407660    0.077480
H    H    0.407660    0.620110    0.077480
H    H    0.379890    0.787550    0.077480
H    H    0.212450    0.592340    0.077480
H    H    0.371300    0.640130    0.916120
H    H    0.359870    0.731170    0.916120
H    H    0.268830    0.628700    0.916120
H    H    0.628700    0.359870    0.916120
H    H    0.640130    0.268830    0.916120
H    H    0.731170    0.371300    0.916120
H    H    0.628700    0.359870    0.083880
H    H    0.640130    0.268830    0.083880
H    H    0.731170    0.371300    0.083880
H    H    0.371300    0.640130    0.083880
H    H    0.359870    0.731170    0.083880
H    H    0.268830    0.628700    0.083880
H    H    0.386670    0.546940    0.172330
H    H    0.453060    0.839730    0.172330
H    H    0.160270    0.613330    0.172330
H    H    0.613330    0.453060    0.172330
H    H    0.546940    0.160270    0.172330
H    H    0.839730    0.386670    0.172330
H    H    0.613330    0.453060    0.827670
H    H    0.546940    0.160270    0.827670
H    H    0.839730    0.386670    0.827670
H    H    0.386670    0.546940    0.827670
H    H    0.453060    0.839730    0.827670
H    H    0.160270    0.613330    0.827670
H    H    0.430590    0.606660    0.926360
H    H    0.393340    0.823930    0.926360
H    H    0.176070    0.569410    0.926360
H    H    0.569410    0.393340    0.926360
H    H    0.606660    0.176070    0.926360
H    H    0.823930    0.430590    0.926360
H    H    0.569410    0.393340    0.073640
H    H    0.606660    0.176070    0.073640
H    H    0.823930    0.430590    0.073640
H    H    0.430590    0.606660    0.073640
H    H    0.393340    0.823930    0.073640
H    H    0.176070    0.569410    0.073640
H    H    0.405730    0.523830    0.898700
H    H    0.476170    0.881900    0.898700
H    H    0.118100    0.594270    0.898700
H    H    0.594270    0.476170    0.898700
H    H    0.523830    0.118100    0.898700
H    H    0.881900    0.405730    0.898700
H    H    0.594270    0.476170    0.101300
H    H    0.523830    0.118100    0.101300
H    H    0.881900    0.405730    0.101300
H    H    0.405730    0.523830    0.101300
H    H    0.476170    0.881900    0.101300
H    H    0.118100    0.594270    0.101300
H    H    0.442020    0.504000    0.905120
H    H    0.496000    0.938020    0.905120
H    H    0.061980    0.557980    0.905120
H    H    0.557980    0.496000    0.905120
H    H    0.504000    0.061980    0.905120
H    H    0.938020    0.442020    0.905120
H    H    0.557980    0.496000    0.094880
H    H    0.504000    0.061980    0.094880
H    H    0.938020    0.442020    0.094880
H    H    0.442020    0.504000    0.094880
H    H    0.496000    0.938020    0.094880
H    H    0.061980    0.557980    0.094880
H    H    0.518140    0.596660    0.951000
H    H    0.403340    0.921480    0.951000
H    H    0.078520    0.481860    0.951000
H    H    0.481860    0.403340    0.951000
H    H    0.596660    0.078520    0.951000
H    H    0.921480    0.518140    0.951000
H    H    0.481860    0.403340    0.049000
H    H    0.596660    0.078520    0.049000
H    H    0.921480    0.518140    0.049000
H    H    0.518140    0.596660    0.049000
H    H    0.403340    0.921480    0.049000
H    H    0.078520    0.481860    0.049000
H    H    0.481550    0.616430    0.944469
H    H    0.383570    0.865120    0.944469
H    H    0.134880    0.518450    0.944469
H    H    0.518450    0.383570    0.944469
H    H    0.616430    0.134880    0.944469
H    H    0.865120    0.481550    0.944469
H    H    0.518450    0.383570    0.055529
H    H    0.616430    0.134880    0.055529
H    H    0.865120    0.481550    0.055529
H    H    0.481550    0.616430    0.055529
H    H    0.383570    0.865120    0.055529
H    H    0.134880    0.518450    0.055529
