data_Star-COF-1
_audit_creation_date              0000-00-00
_audit_creation_method            'LanYouShi'
_symmetry_space_group_name_H-M    'P1'
_cell_length_a                    38.5200005
_cell_length_b                    38.5200005
_cell_length_c                    3.3800001
_cell_angle_alpha                 90.0000000
_cell_angle_beta                  90.0000000
_cell_angle_gamma                 120.0000000
loop_
_atom_site_label
_atom_site_type_symbol
_atom_site_fract_x
_atom_site_fract_y
_atom_site_fract_z
_atom_site_U_iso_or_equiv
_atom_site_adp_type
_atom_site_occupancy
        C1          C  0.0207857  0.5419569  0.5000000    0.00000       Uiso       1.00
        C2          C  0.1486695  0.5929834  0.5000000    0.00000       Uiso       1.00
        C3          C  0.1839769  0.6293694  0.5000000    0.00000       Uiso       1.00
        C4          C  0.1835016  0.6654867  0.5000000    0.00000       Uiso       1.00
        C5          C  0.2192466  0.7021694  0.5000000    0.00000       Uiso       1.00
        C6          C  0.2566285  0.7038150  0.5000000    0.00000       Uiso       1.00
        C7          C  0.2559171  0.6667104  0.5000000    0.00000       Uiso       1.00
        C8          C  0.2205246  0.6291234  0.5000000    0.00000       Uiso       1.00
        O1          O  0.1104970  0.5873857  0.5000000    0.00000       Uiso       1.00
        H1          H  0.0365621  0.5744352  0.5000000    0.00000       Uiso       1.00
        H2          H  0.1553458  0.6654277  0.5000000    0.00000       Uiso       1.00
        H3          H  0.2166577  0.7287329  0.5000000    0.00000       Uiso       1.00
        H4          H  0.2830174  0.6668314  0.5000000    0.00000       Uiso       1.00
        C9          C  0.4580431  0.4788288  0.5000000    0.00000       Uiso       1.00
       C10          C  0.4070166  0.5556861  0.5000000    0.00000       Uiso       1.00
       C11          C  0.3706306  0.5546075  0.5000000    0.00000       Uiso       1.00
       C12          C  0.3345133  0.5180149  0.5000000    0.00000       Uiso       1.00
       C13          C  0.2978306  0.5170771  0.5000000    0.00000       Uiso       1.00
       C14          C  0.2961850  0.5528135  0.5000000    0.00000       Uiso       1.00
       C15          C  0.3332896  0.5892067  0.5000000    0.00000       Uiso       1.00
       C16          C  0.3708765  0.5914012  0.5000000    0.00000       Uiso       1.00
        O2          O  0.4126143  0.5231112  0.5000000    0.00000       Uiso       1.00
        H5          H  0.4255648  0.4621269  0.5000000    0.00000       Uiso       1.00
        H6          H  0.3345723  0.4899181  0.5000000    0.00000       Uiso       1.00
        H7          H  0.2712671  0.4879248  0.5000000    0.00000       Uiso       1.00
        H8          H  0.3331685  0.6161859  0.5000000    0.00000       Uiso       1.00
       C17          C  0.5211712  0.9792143  0.5000000    0.00000       Uiso       1.00
       C18          C  0.4443139  0.8513305  0.5000000    0.00000       Uiso       1.00
       C19          C  0.4453925  0.8160231  0.5000000    0.00000       Uiso       1.00
       C20          C  0.4819851  0.8164984  0.5000000    0.00000       Uiso       1.00
       C21          C  0.4829229  0.7807534  0.5000000    0.00000       Uiso       1.00
       C22          C  0.4471866  0.7433715  0.5000000    0.00000       Uiso       1.00
       C23          C  0.4107933  0.7440829  0.5000000    0.00000       Uiso       1.00
       C24          C  0.4085989  0.7794754  0.5000000    0.00000       Uiso       1.00
        O3          O  0.4768887  0.8895030  0.5000000    0.00000       Uiso       1.00
        H9          H  0.5378731  0.9634379  0.5000000    0.00000       Uiso       1.00
       H10          H  0.5100819  0.8446541  0.5000000    0.00000       Uiso       1.00
       H11          H  0.5120752  0.7833423  0.5000000    0.00000       Uiso       1.00
       H12          H  0.3838141  0.7169826  0.5000000    0.00000       Uiso       1.00
       C25          C  0.9792143  0.4580431  0.5000000    0.00000       Uiso       1.00
       C26          C  0.8513305  0.4070166  0.5000000    0.00000       Uiso       1.00
       C27          C  0.8160231  0.3706306  0.5000000    0.00000       Uiso       1.00
       C28          C  0.8164983  0.3345133  0.5000000    0.00000       Uiso       1.00
       C29          C  0.7807534  0.2978306  0.5000000    0.00000       Uiso       1.00
       C30          C  0.7433715  0.2961850  0.5000000    0.00000       Uiso       1.00
       C31          C  0.7440829  0.3332896  0.5000000    0.00000       Uiso       1.00
       C32          C  0.7794754  0.3708765  0.5000000    0.00000       Uiso       1.00
        O4          O  0.8895029  0.4126143  0.5000000    0.00000       Uiso       1.00
       H13          H  0.9634379  0.4255648  0.5000000    0.00000       Uiso       1.00
       H14          H  0.8446541  0.3345723  0.5000000    0.00000       Uiso       1.00
       H15          H  0.7833423  0.2712671  0.5000000    0.00000       Uiso       1.00
       H16          H  0.7169826  0.3331685  0.5000000    0.00000       Uiso       1.00
       C33          C  0.5419569  0.5211712  0.5000000    0.00000       Uiso       1.00
       C34          C  0.5929834  0.4443139  0.5000000    0.00000       Uiso       1.00
       C35          C  0.6293694  0.4453925  0.5000000    0.00000       Uiso       1.00
       C36          C  0.6654867  0.4819851  0.5000000    0.00000       Uiso       1.00
       C37          C  0.7021694  0.4829229  0.5000000    0.00000       Uiso       1.00
       C38          C  0.7038150  0.4471865  0.5000000    0.00000       Uiso       1.00
       C39          C  0.6667104  0.4107933  0.5000000    0.00000       Uiso       1.00
       C40          C  0.6291234  0.4085989  0.5000000    0.00000       Uiso       1.00
        O5          O  0.5873857  0.4768887  0.5000000    0.00000       Uiso       1.00
       H17          H  0.5744352  0.5378731  0.5000000    0.00000       Uiso       1.00
       H18          H  0.6654277  0.5100819  0.5000000    0.00000       Uiso       1.00
       H19          H  0.7287329  0.5120752  0.5000000    0.00000       Uiso       1.00
       H20          H  0.6668314  0.3838141  0.5000000    0.00000       Uiso       1.00
       C41          C  0.4788288  0.0207857  0.5000000    0.00000       Uiso       1.00
       C42          C  0.5556861  0.1486695  0.5000000    0.00000       Uiso       1.00
       C43          C  0.5546075  0.1839769  0.5000000    0.00000       Uiso       1.00
       C44          C  0.5180149  0.1835016  0.5000000    0.00000       Uiso       1.00
       C45          C  0.5170771  0.2192466  0.5000000    0.00000       Uiso       1.00
       C46          C  0.5528134  0.2566285  0.5000000    0.00000       Uiso       1.00
       C47          C  0.5892067  0.2559171  0.5000000    0.00000       Uiso       1.00
       C48          C  0.5914012  0.2205246  0.5000000    0.00000       Uiso       1.00
        O6          O  0.5231113  0.1104970  0.5000000    0.00000       Uiso       1.00
       H21          H  0.4621269  0.0365621  0.5000000    0.00000       Uiso       1.00
       H22          H  0.4899181  0.1553458  0.5000000    0.00000       Uiso       1.00
       H23          H  0.4879248  0.2166577  0.5000000    0.00000       Uiso       1.00
       H24          H  0.6161859  0.2830174  0.5000000    0.00000       Uiso       1.00
       C49          C  0.5419568  0.0207857  0.5000000    0.00000       Uiso       1.00
       C50          C  0.5929834  0.1486695  0.5000000    0.00000       Uiso       1.00
       C51          C  0.6293694  0.1839769  0.5000000    0.00000       Uiso       1.00
       C52          C  0.6654867  0.1835016  0.5000000    0.00000       Uiso       1.00
       C53          C  0.7021694  0.2192466  0.5000000    0.00000       Uiso       1.00
       C54          C  0.7038150  0.2566285  0.5000000    0.00000       Uiso       1.00
       C55          C  0.6667104  0.2559171  0.5000000    0.00000       Uiso       1.00
       C56          C  0.6291234  0.2205246  0.5000000    0.00000       Uiso       1.00
        O7          O  0.5873857  0.1104970  0.5000000    0.00000       Uiso       1.00
       H25          H  0.5744352  0.0365621  0.5000000    0.00000       Uiso       1.00
       H26          H  0.6654277  0.1553458  0.5000000    0.00000       Uiso       1.00
       H27          H  0.7287329  0.2166577  0.5000000    0.00000       Uiso       1.00
       H28          H  0.6668315  0.2830174  0.5000000    0.00000       Uiso       1.00
       C57          C  0.4788288  0.4580431  0.5000000    0.00000       Uiso       1.00
       C58          C  0.5556861  0.4070166  0.5000000    0.00000       Uiso       1.00
       C59          C  0.5546075  0.3706306  0.5000000    0.00000       Uiso       1.00
       C60          C  0.5180149  0.3345133  0.5000000    0.00000       Uiso       1.00
       C61          C  0.5170771  0.2978306  0.5000000    0.00000       Uiso       1.00
       C62          C  0.5528134  0.2961850  0.5000000    0.00000       Uiso       1.00
       C63          C  0.5892067  0.3332896  0.5000000    0.00000       Uiso       1.00
       C64          C  0.5914011  0.3708765  0.5000000    0.00000       Uiso       1.00
        O8          O  0.5231113  0.4126143  0.5000000    0.00000       Uiso       1.00
       H29          H  0.4621269  0.4255648  0.5000000    0.00000       Uiso       1.00
       H30          H  0.4899181  0.3345723  0.5000000    0.00000       Uiso       1.00
       H31          H  0.4879248  0.2712671  0.5000000    0.00000       Uiso       1.00
       H32          H  0.6161859  0.3331685  0.5000000    0.00000       Uiso       1.00
       C65          C  0.9792143  0.5211712  0.5000000    0.00000       Uiso       1.00
       C66          C  0.8513305  0.4443139  0.5000000    0.00000       Uiso       1.00
       C67          C  0.8160231  0.4453925  0.5000000    0.00000       Uiso       1.00
       C68          C  0.8164984  0.4819851  0.5000000    0.00000       Uiso       1.00
       C69          C  0.7807534  0.4829229  0.5000000    0.00000       Uiso       1.00
       C70          C  0.7433715  0.4471865  0.5000000    0.00000       Uiso       1.00
       C71          C  0.7440829  0.4107933  0.5000000    0.00000       Uiso       1.00
       C72          C  0.7794753  0.4085989  0.5000000    0.00000       Uiso       1.00
        O9          O  0.8895030  0.4768887  0.5000000    0.00000       Uiso       1.00
       H33          H  0.9634379  0.5378731  0.5000000    0.00000       Uiso       1.00
       H34          H  0.8446541  0.5100819  0.5000000    0.00000       Uiso       1.00
       H35          H  0.7833423  0.5120752  0.5000000    0.00000       Uiso       1.00
       H36          H  0.7169826  0.3838141  0.5000000    0.00000       Uiso       1.00
       C73          C  0.4580431  0.9792143  0.5000000    0.00000       Uiso       1.00
       C74          C  0.4070166  0.8513305  0.5000000    0.00000       Uiso       1.00
       C75          C  0.3706306  0.8160231  0.5000000    0.00000       Uiso       1.00
       C76          C  0.3345133  0.8164984  0.5000000    0.00000       Uiso       1.00
       C77          C  0.2978306  0.7807534  0.5000000    0.00000       Uiso       1.00
       C78          C  0.2961850  0.7433715  0.5000000    0.00000       Uiso       1.00
       C79          C  0.3332896  0.7440829  0.5000000    0.00000       Uiso       1.00
       C80          C  0.3708765  0.7794754  0.5000000    0.00000       Uiso       1.00
       O10          O  0.4126143  0.8895030  0.5000000    0.00000       Uiso       1.00
       H37          H  0.4255649  0.9634379  0.5000000    0.00000       Uiso       1.00
       H38          H  0.3345723  0.8446541  0.5000000    0.00000       Uiso       1.00
       H39          H  0.2712671  0.7833423  0.5000000    0.00000       Uiso       1.00
       H40          H  0.3331685  0.7169826  0.5000000    0.00000       Uiso       1.00
       C81          C  0.5211712  0.5419569  0.5000000    0.00000       Uiso       1.00
       C82          C  0.4443139  0.5929834  0.5000000    0.00000       Uiso       1.00
       C83          C  0.4453925  0.6293694  0.5000000    0.00000       Uiso       1.00
       C84          C  0.4819851  0.6654867  0.5000000    0.00000       Uiso       1.00
       C85          C  0.4829229  0.7021694  0.5000000    0.00000       Uiso       1.00
       C86          C  0.4471865  0.7038150  0.5000000    0.00000       Uiso       1.00
       C87          C  0.4107933  0.6667104  0.5000000    0.00000       Uiso       1.00
       C88          C  0.4085989  0.6291234  0.5000000    0.00000       Uiso       1.00
       O11          O  0.4768887  0.5873857  0.5000000    0.00000       Uiso       1.00
       H41          H  0.5378731  0.5744352  0.5000000    0.00000       Uiso       1.00
       H42          H  0.5100819  0.6654277  0.5000000    0.00000       Uiso       1.00
       H43          H  0.5120752  0.7287329  0.5000000    0.00000       Uiso       1.00
       H44          H  0.3838141  0.6668314  0.5000000    0.00000       Uiso       1.00
       C89          C  0.0207857  0.4788288  0.5000000    0.00000       Uiso       1.00
       C90          C  0.1486695  0.5556861  0.5000000    0.00000       Uiso       1.00
       C91          C  0.1839769  0.5546075  0.5000000    0.00000       Uiso       1.00
       C92          C  0.1835016  0.5180149  0.5000000    0.00000       Uiso       1.00
       C93          C  0.2192466  0.5170771  0.5000000    0.00000       Uiso       1.00
       C94          C  0.2566285  0.5528135  0.5000000    0.00000       Uiso       1.00
       C95          C  0.2559171  0.5892067  0.5000000    0.00000       Uiso       1.00
       C96          C  0.2205246  0.5914012  0.5000000    0.00000       Uiso       1.00
       O12          O  0.1104970  0.5231112  0.5000000    0.00000       Uiso       1.00
       H45          H  0.0365621  0.4621269  0.5000000    0.00000       Uiso       1.00
       H46          H  0.1553459  0.4899181  0.5000000    0.00000       Uiso       1.00
       H47          H  0.2166577  0.4879248  0.5000000    0.00000       Uiso       1.00
       H48          H  0.2830174  0.6161859  0.5000000    0.00000       Uiso       1.00
       C97          C  0.0414920  0.5207460  0.5000000    0.00000       Uiso       1.00
        B1          B  0.0872890  0.5436445  0.5000000    0.00000       Uiso       1.00
       C98          C  0.4792540  0.5207460  0.5000000    0.00000       Uiso       1.00
        B2          B  0.4563555  0.5436445  0.5000000    0.00000       Uiso       1.00
       C99          C  0.4792540  0.9585081  0.5000000    0.00000       Uiso       1.00
        B3          B  0.4563555  0.9127110  0.5000000    0.00000       Uiso       1.00
      C100          C  0.9585080  0.4792540  0.5000000    0.00000       Uiso       1.00
        B4          B  0.9127110  0.4563555  0.5000000    0.00000       Uiso       1.00
      C101          C  0.5207460  0.4792540  0.5000000    0.00000       Uiso       1.00
        B5          B  0.5436445  0.4563555  0.5000000    0.00000       Uiso       1.00
      C102          C  0.5207460  0.0414920  0.5000000    0.00000       Uiso       1.00
        B6          B  0.5436445  0.0872890  0.5000000    0.00000       Uiso       1.00
