data_crystal

_cell_length_a    25.59840
_cell_length_b    25.59840
_cell_length_c    10.66890
_cell_angle_alpha 90.00000
_cell_angle_beta  90.00000
_cell_angle_gamma 120.00000

_symmetry_space_group_name_Hall 'P 1'
_symmetry_space_group_name_H-M  'P 1'

loop_
_symmetry_equiv_pos_as_xyz
 'x,y,z'

loop_
_atom_site_label
_atom_site_type_symbol
_atom_site_fract_x
_atom_site_fract_y
_atom_site_fract_z
C          C       0.98919   0.06357   0.01220
C          C       0.93643   0.92562   0.34553
C          C       0.07438   0.01081   0.67887
H          H       0.10879   0.12072   0.99235
H          H       0.87928   0.98807   0.32568
H          H       0.01193   0.89121   0.65902
C          C       0.12774   0.05132   0.05042
C          C       0.94868   0.07642   0.38375
C          C       0.92358   0.87226   0.71709
C          C       0.22357   0.15372   0.06249
C          C       0.84628   0.06985   0.39582
C          C       0.93015   0.77643   0.72916
C          C       0.28383   0.18697   0.09857
C          C       0.81303   0.09686   0.43190
C          C       0.90314   0.71617   0.76524
C          C       0.31373   0.15864   0.15016
C          C       0.84136   0.15509   0.48349
C          C       0.84491   0.68627   0.81683
H          H       0.30733   0.23514   0.08263
H          H       0.76486   0.07219   0.41596
H          H       0.92781   0.69267   0.74930
H          H       0.20341   0.17802   0.02193
H          H       0.82198   0.02539   0.35526
H          H       0.97461   0.79659   0.68860
C          C       0.47629   0.20193   0.21590
C          C       0.79807   0.27436   0.54923
C          C       0.72564   0.52371   0.88257
C          C       0.41525   0.16802   0.18578
C          C       0.83198   0.24723   0.51911
C          C       0.75277   0.58475   0.85245
C          C       0.37824   0.19416   0.18852
C          C       0.80584   0.18408   0.52185
C          C       0.81592   0.62176   0.85519
C          C       0.40373   0.25463   0.22729
C          C       0.74537   0.14910   0.56062
C          C       0.85090   0.59627   0.89396
C          C       0.46499   0.28873   0.25614
C          C       0.71127   0.17626   0.58947
C          C       0.82374   0.53501   0.92281
H          H       0.48345   0.33553   0.28268
H          H       0.66447   0.14792   0.61601
H          H       0.85208   0.51655   0.94935
H          H       0.39807   0.12202   0.15538
H          H       0.87798   0.27605   0.48871
H          H       0.72395   0.60193   0.82205
H          H       0.50371   0.18078   0.20847
H          H       0.81922   0.32293   0.54180
H          H       0.67707   0.49629   0.87514
C          C       0.50212   0.26305   0.24819
C          C       0.73695   0.23907   0.58152
C          C       0.76093   0.49788   0.91486
H          H       0.37652   0.27591   0.23582
H          H       0.72409   0.10061   0.56915
H          H       0.89939   0.62348   0.90249
N          N       0.59498   0.36181   0.25723
N          N       0.63819   0.23317   0.59056
N          N       0.76683   0.40502   0.92390
C          C       0.56807   0.30072   0.26320
C          C       0.69928   0.26735   0.59653
C          C       0.73265   0.43193   0.92987
H          H       0.10752   0.00393   0.07041
H          H       0.99607   0.10359   0.40374
H          H       0.89641   0.89248   0.73708
H          H       0.19696   0.01014   0.13636
H          H       0.98986   0.18682   0.46969
H          H       0.81318   0.80304   0.80303
C          C       0.09020   0.07324   0.01084
C          C       0.92676   0.01696   0.34417
C          C       0.98304   0.90980   0.67751
C          C       0.18956   0.08702   0.07649
C          C       0.91298   0.10254   0.40982
C          C       0.89746   0.81044   0.74316
C          C       0.27997   0.09198   0.16199
C          C       0.90802   0.18799   0.49532
C          C       0.81201   0.72003   0.82866
C          C       0.22011   0.05866   0.12417
C          C       0.94134   0.16145   0.45750
C          C       0.83855   0.77989   0.79084
C          C       0.02353   0.03535   0.00552
C          C       0.96465   0.98818   0.33885
C          C       0.01182   0.97647   0.67219
H          H       0.30040   0.06822   0.20469
H          H       0.93178   0.23218   0.53802
H          H       0.76782   0.69960   0.87136
H          H       0.80481   0.94003   0.02639
H          H       0.05997   0.86478   0.35972
H          H       0.13522   0.19519   0.69306
H          H       0.81462   0.88462   0.94809
H          H       0.11538   0.93000   0.28142
H          H       0.07000   0.18538   0.61476
H          H       0.85212   0.99994   0.80322
H          H       0.00006   0.85218   0.13655
H          H       0.14782   0.14788   0.46989
H          H       0.77417   0.94220   0.81768
H          H       0.05780   0.83197   0.15101
H          H       0.16803   0.22583   0.48435
H          H       0.82786   0.92486   0.75047
H          H       0.07514   0.90300   0.08380
H          H       0.09700   0.17214   0.41714
C          C       0.83251   0.93376   0.95436
C          C       0.06624   0.89875   0.28769
C          C       0.10125   0.16749   0.62103
C          C       0.82141   0.95168   0.82403
C          C       0.04832   0.86973   0.15736
C          C       0.13027   0.17859   0.49070
N          N       0.89730   0.96797   0.99041
N          N       0.03203   0.92933   0.32374
N          N       0.07067   0.10270   0.65708
H          H       0.84544   0.03960   0.99148
H          H       0.96040   0.80584   0.32481
H          H       0.19416   0.15456   0.65815
C          C       0.91188   0.11453   0.09526
C          C       0.88547   0.79735   0.42859
C          C       0.20265   0.08812   0.76193
C          C       0.81082   0.11055   0.10190
C          C       0.88945   0.70027   0.43523
C          C       0.29973   0.18918   0.76857
C          C       0.77801   0.13776   0.13789
C          C       0.86224   0.64025   0.47122
C          C       0.35975   0.22199   0.80456
C          C       0.80646   0.19505   0.19296
C          C       0.80495   0.61141   0.52629
C          C       0.38859   0.19354   0.85963
H          H       0.73008   0.11416   0.11878
H          H       0.88584   0.61592   0.45211
H          H       0.38408   0.26992   0.78545
H          H       0.78577   0.06621   0.06111
H          H       0.93379   0.71956   0.39444
H          H       0.28044   0.21423   0.72778
C          C       0.76313   0.31509   0.23559
C          C       0.68491   0.44804   0.56892
C          C       0.55196   0.23687   0.90226
C          C       0.79750   0.28757   0.21520
C          C       0.71243   0.50993   0.54853
C          C       0.49007   0.20250   0.88187
C          C       0.77132   0.22474   0.22583
C          C       0.77526   0.54658   0.55916
C          C       0.45342   0.22868   0.89250
C          C       0.71057   0.19042   0.26285
C          C       0.80958   0.52015   0.59618
C          C       0.47985   0.28943   0.92952
C          C       0.67590   0.21785   0.28120
C          C       0.78215   0.45805   0.61453
C          C       0.54195   0.32410   0.94787
H          H       0.62885   0.19003   0.30653
H          H       0.80997   0.43882   0.63986
H          H       0.56118   0.37115   0.97320
H          H       0.84380   0.31542   0.18521
H          H       0.68458   0.52838   0.51854
H          H       0.47162   0.15620   0.85188
H          H       0.78428   0.36339   0.22227
H          H       0.63661   0.42089   0.55560
H          H       0.57911   0.21572   0.88894
C          C       0.70157   0.28030   0.26522
C          C       0.71970   0.42127   0.59855
C          C       0.57873   0.29843   0.93189
H          H       0.68952   0.14221   0.27693
H          H       0.85779   0.54731   0.61026
H          H       0.45269   0.31048   0.94360
N          N       0.60281   0.27448   0.26913
N          N       0.72552   0.32833   0.60246
N          N       0.67167   0.39719   0.93580
C          C       0.66381   0.30870   0.27074
C          C       0.69130   0.35511   0.60407
C          C       0.64489   0.33619   0.93741
H          H       0.95776   0.13698   0.12952
H          H       0.86302   0.82078   0.46285
H          H       0.17922   0.04224   0.79619
H          H       0.95359   0.22248   0.19609
H          H       0.77752   0.73111   0.52942
H          H       0.26889   0.04641   0.86276
C          C       0.89040   0.06073   0.02810
C          C       0.93927   0.82967   0.36143
C          C       0.17033   0.10960   0.69477
C          C       0.87709   0.14132   0.12331
C          C       0.85868   0.73577   0.45664
C          C       0.26423   0.12291   0.78998
C          C       0.87262   0.22637   0.21205
C          C       0.77363   0.64625   0.54538
C          C       0.35375   0.12738   0.87872
C          C       0.90544   0.19867   0.17846
C          C       0.80133   0.70677   0.51179
C          C       0.29323   0.09456   0.84513
C          C       0.92580   0.02968   0.00868
C          C       0.97032   0.89612   0.34201
C          C       0.10388   0.07420   0.67535
H          H       0.89606   0.27022   0.25630
H          H       0.72978   0.62584   0.58963
H          H       0.37416   0.10394   0.92297
Br         Br      0.70664   0.94104   0.20230
Br         Br      0.05896   0.76560   0.53563
Br         Br      0.23440   0.29336   0.86897
C          C       0.99348   0.97246   0.00180
C          C       0.02754   0.02102   0.33513
C          C       0.97898   0.00652   0.66847
H          H       0.92635   0.85221   0.98655
H          H       0.14779   0.07414   0.31988
H          H       0.92586   0.07365   0.65322
C          C       0.85498   0.84249   0.10871
C          C       0.15751   0.01249   0.44204
C          C       0.98751   0.14502   0.77538
C          C       0.86114   0.74686   0.10873
C          C       0.25314   0.11428   0.44206
C          C       0.88572   0.13886   0.77540
C          C       0.83344   0.68558   0.13389
C          C       0.31442   0.14786   0.46722
C          C       0.85214   0.16656   0.80056
C          C       0.77585   0.65475   0.18762
C          C       0.34525   0.12110   0.52095
C          C       0.87890   0.22415   0.85429
H          H       0.85725   0.66234   0.10789
H          H       0.33766   0.19491   0.44122
H          H       0.80509   0.14275   0.77456
H          H       0.90574   0.76793   0.06849
H          H       0.23207   0.13781   0.40182
H          H       0.86219   0.09426   0.73516
C          C       0.65238   0.49115   0.22021
C          C       0.50885   0.16123   0.55354
C          C       0.83877   0.34762   0.88688
C          C       0.68154   0.55351   0.20224
C          C       0.44649   0.12803   0.53557
C          C       0.87197   0.31846   0.86891
C          C       0.74483   0.58847   0.20720
C          C       0.41153   0.15636   0.54053
C          C       0.84364   0.25517   0.87387
C          C       0.77813   0.55932   0.22940
C          C       0.44068   0.21881   0.56273
C          C       0.78119   0.22187   0.89607
C          C       0.74912   0.49724   0.24712
C          C       0.50276   0.25188   0.58045
C          C       0.74812   0.25088   0.91379
H          H       0.77648   0.47664   0.26459
H          H       0.52336   0.29984   0.59792
H          H       0.70016   0.22352   0.93126
H          H       0.65437   0.57399   0.18193
H          H       0.42601   0.08038   0.51526
H          H       0.91962   0.34563   0.84860
H          H       0.60363   0.46544   0.21481
H          H       0.53456   0.13819   0.54814
H          H       0.86181   0.39637   0.88148
C          C       0.68595   0.46243   0.24289
C          C       0.53757   0.22352   0.57622
C          C       0.77648   0.31405   0.90956
H          H       0.82678   0.58424   0.23529
H          H       0.41576   0.24254   0.56862
H          H       0.75746   0.17322   0.90196
N          N       0.68992   0.36945   0.26473
N          N       0.63055   0.32047   0.59806
N          N       0.67953   0.31008   0.93140
C          C       0.65603   0.39641   0.25819
C          C       0.60359   0.25962   0.59152
C          C       0.74038   0.34397   0.92486
H          H       0.83419   0.86652   0.14910
H          H       0.13348   0.96767   0.48243
H          H       0.03233   0.16581   0.81577
H          H       0.75151   0.77561   0.22720
H          H       0.22439   0.97590   0.56053
H          H       0.02410   0.24849   0.89387
C          C       0.90320   0.87376   0.02613
C          C       0.12624   0.02944   0.35946
C          C       0.97056   0.09680   0.69280
C          C       0.83022   0.78135   0.13839
C          C       0.21865   0.04887   0.47172
C          C       0.95113   0.16978   0.80506
C          C       0.74657   0.68987   0.22454
C          C       0.31013   0.05670   0.55787
C          C       0.94330   0.25343   0.89121
C          C       0.77446   0.75147   0.19997
C          C       0.24853   0.02299   0.53330
C          C       0.97701   0.22554   0.86664
C          C       0.93044   0.93917   0.00280
C          C       0.06083   0.99127   0.33613
C          C       0.00873   0.06956   0.66947
H          H       0.70387   0.66845   0.27361
H          H       0.33155   0.03542   0.60694
H          H       0.96458   0.29613   0.94028
H          H       0.88782   0.90028   0.35227
H          H       0.09972   0.98754   0.68560
H          H       0.01246   0.11218   0.01894
H          H       0.93033   0.98182   0.66700
H          H       0.01818   0.94851   0.00033
H          H       0.05149   0.06967   0.33367
