data_crystal

_cell_length_a    23.51900
_cell_length_b    44.46600
_cell_length_c    18.52700
_cell_angle_alpha 90.00000
_cell_angle_beta  114.56400
_cell_angle_gamma 90.00000

_space_group_name_Hall 'P 1'
_space_group_name_H-M_alt  'P 1'

loop_
_symmetry_equiv_pos_as_xyz
 'x,y,z'

loop_
_atom_site_label
_atom_site_type_symbol
_atom_site_fract_x
_atom_site_fract_y
_atom_site_fract_z
C          C       0.88568   0.54974   0.84941
C          C       0.88568   0.45026   0.34941
C          C       0.38568   0.04974   0.84941
C          C       0.38568   0.95026   0.34941
C          C       0.78926   0.57343   0.84333
C          C       0.78926   0.42657   0.34333
C          C       0.28926   0.07343   0.84333
C          C       0.28926   0.92657   0.34333
C          C       0.42426   0.56742   0.74778
C          C       0.42426   0.43258   0.24778
C          C       0.92426   0.06742   0.74778
C          C       0.92426   0.93258   0.24778
C          C       0.49039   0.56592   0.77696
C          C       0.49039   0.43408   0.27696
C          C       0.99039   0.06592   0.77696
C          C       0.99039   0.93408   0.27696
C          C       0.51899   0.56780   0.72328
C          C       0.51899   0.43220   0.22328
C          C       0.01899   0.06780   0.72328
C          C       0.01899   0.93220   0.22328
C          C       0.48139   0.56769   0.64010
C          C       0.48139   0.43231   0.14010
C          C       0.98139   0.06769   0.64010
C          C       0.98139   0.93231   0.14010
C          C       0.41532   0.56585   0.61094
C          C       0.41532   0.43415   0.11094
C          C       0.91532   0.06585   0.61094
C          C       0.91532   0.93415   0.11094
C          C       0.38663   0.56731   0.66458
C          C       0.38663   0.43269   0.16458
C          C       0.88663   0.06731   0.66458
C          C       0.88663   0.93269   0.16458
C          C       0.97240   0.51840   0.85663
C          C       0.97240   0.48160   0.35663
C          C       0.47240   0.01840   0.85663
C          C       0.47240   0.98160   0.35663
C          C       0.21653   0.59140   0.55364
C          C       0.21653   0.40860   0.05364
C          C       0.71653   0.09140   0.55364
C          C       0.71653   0.90860   0.05364
C          C       0.18517   0.56848   0.57458
C          C       0.18517   0.43152   0.07458
C          C       0.68517   0.06848   0.57458
C          C       0.68517   0.93152   0.07458
C          C       0.22043   0.54539   0.62570
C          C       0.22043   0.45461   0.12570
C          C       0.72043   0.04539   0.62570
C          C       0.72043   0.95461   0.12570
C          C       0.28556   0.54484   0.65396
C          C       0.28556   0.45516   0.15396
C          C       0.78556   0.04484   0.65396
C          C       0.78556   0.95516   0.15396
C          C       0.31697   0.56781   0.63344
C          C       0.31697   0.43219   0.13344
C          C       0.81697   0.06781   0.63344
C          C       0.81697   0.93219   0.13344
C          C       0.28198   0.59115   0.58311
C          C       0.28198   0.40885   0.08311
C          C       0.78198   0.09115   0.58311
C          C       0.78198   0.90885   0.08311
C          C       0.01419   0.54296   0.88215
C          C       0.01419   0.45704   0.38215
C          C       0.51419   0.04296   0.88215
C          C       0.51419   0.95704   0.38215
C          C       0.11600   0.56849   0.54169
C          C       0.11600   0.43151   0.04169
C          C       0.61600   0.06849   0.54169
C          C       0.61600   0.93151   0.04169
C          C       0.82371   0.53587   0.49638
C          C       0.82371   0.46413   0.99638
C          C       0.32371   0.03587   0.49638
C          C       0.32371   0.96413   0.99638
C          C       0.74480   0.56991   0.38259
C          C       0.74480   0.43009   0.88259
C          C       0.24480   0.06991   0.38259
C          C       0.24480   0.93009   0.88259
C          C       0.78227   0.54373   0.40786
C          C       0.78227   0.45627   0.90786
C          C       0.28227   0.04373   0.40786
C          C       0.28227   0.95627   0.90786
C          C       0.72455   0.59904   0.04824
C          C       0.72455   0.40096   0.54824
C          C       0.22455   0.09904   0.04824
C          C       0.22455   0.90096   0.54824
N          N       0.12780   0.42110   0.80536
N          N       0.12780   0.57890   0.30536
N          N       0.62780   0.92110   0.80536
N          N       0.62780   0.07890   0.30536
C          C       0.08284   0.54134   0.89099
C          C       0.08284   0.45866   0.39099
C          C       0.58284   0.04134   0.89099
C          C       0.58284   0.95866   0.39099
C          C       0.90885   0.52231   0.83646
C          C       0.90885   0.47769   0.33646
C          C       0.40885   0.02231   0.83646
C          C       0.40885   0.97769   0.33646
C          C       0.93446   0.51310   0.53114
C          C       0.93446   0.48690   0.03114
C          C       0.43446   0.01310   0.53114
C          C       0.43446   0.98690   0.03114
C          C       0.53956   0.59669   0.57647
C          C       0.53956   0.40331   0.07647
C          C       0.03956   0.09669   0.57647
C          C       0.03956   0.90331   0.07647
C          C       0.51099   0.56973   0.58322
C          C       0.51099   0.43027   0.08322
C          C       0.01099   0.06973   0.58322
C          C       0.01099   0.93027   0.08322
C          C       0.50841   0.54535   0.53353
C          C       0.50841   0.45465   0.03353
C          C       0.00841   0.04535   0.53353
C          C       0.00841   0.95465   0.03353
C          C       0.53278   0.54822   0.47670
C          C       0.53278   0.45178   0.97670
C          C       0.03278   0.04822   0.47670
C          C       0.03278   0.95178   0.97670
C          C       0.56104   0.57512   0.47021
C          C       0.56104   0.42488   0.97021
C          C       0.06104   0.07512   0.47021
C          C       0.06104   0.92488   0.97021
C          C       0.56444   0.59933   0.52008
C          C       0.56444   0.40067   0.02008
C          C       0.06444   0.09933   0.52008
C          C       0.06444   0.90067   0.02008
C          C       0.91483   0.56477   0.48740
C          C       0.91483   0.43523   0.98740
C          C       0.41483   0.06477   0.48740
C          C       0.41483   0.93523   0.98740
C          C       0.75990   0.75753   0.77185
C          C       0.75990   0.24247   0.27185
C          C       0.25990   0.25753   0.77185
C          C       0.25990   0.74247   0.27185
C          C       0.62205   0.59308   0.80400
C          C       0.62205   0.40692   0.30400
C          C       0.12205   0.09308   0.80400
C          C       0.12205   0.90692   0.30400
C          C       0.58857   0.56925   0.75443
C          C       0.58857   0.43075   0.25443
C          C       0.08857   0.06925   0.75443
C          C       0.08857   0.93075   0.25443
C          C       0.62136   0.54683   0.73435
C          C       0.62136   0.45317   0.23435
C          C       0.12136   0.04683   0.73435
C          C       0.12136   0.95317   0.23435
C          C       0.68633   0.54851   0.76185
C          C       0.68633   0.45149   0.26185
C          C       0.18633   0.04851   0.76185
C          C       0.18633   0.95149   0.26185
C          C       0.72016   0.57212   0.81204
C          C       0.72016   0.42788   0.31204
C          C       0.22016   0.07212   0.81204
C          C       0.22016   0.92788   0.31204
C          C       0.68743   0.59441   0.83294
C          C       0.68743   0.40559   0.33294
C          C       0.18743   0.09441   0.83294
C          C       0.18743   0.90559   0.33294
C          C       0.73643   0.85769   0.87655
C          C       0.73643   0.14231   0.37655
C          C       0.23643   0.35769   0.87655
C          C       0.23643   0.64231   0.37655
C          C       0.67945   0.87265   0.83432
C          C       0.67945   0.12735   0.33432
C          C       0.17945   0.37265   0.83432
C          C       0.17945   0.62735   0.33432
C          C       0.62358   0.85598   0.79979
C          C       0.62358   0.14402   0.29979
C          C       0.12358   0.35598   0.79979
C          C       0.12358   0.64402   0.29979
C          C       0.62448   0.82498   0.81270
C          C       0.62448   0.17502   0.31270
C          C       0.12448   0.32498   0.81270
C          C       0.12448   0.67502   0.31270
C          C       0.68112   0.81062   0.85989
C          C       0.68112   0.18938   0.35989
C          C       0.18112   0.31062   0.85989
C          C       0.18112   0.68938   0.35989
C          C       0.73726   0.82685   0.88927
C          C       0.73726   0.17315   0.38927
C          C       0.23726   0.32685   0.88927
C          C       0.23726   0.67315   0.38927
C          C       0.02064   0.54468   0.53776
C          C       0.02064   0.45532   0.03776
C          C       0.52064   0.04468   0.53776
C          C       0.52064   0.95532   0.03776
C          C       0.26475   0.54032   0.27854
C          C       0.26475   0.45968   0.77854
C          C       0.76475   0.04032   0.27854
C          C       0.76475   0.95968   0.77854
N          N       0.24602   0.56160   0.22534
N          N       0.24602   0.43840   0.72534
N          N       0.74602   0.06160   0.22534
N          N       0.74602   0.93840   0.72534
C          C       0.66107   0.66525   0.73432
C          C       0.66107   0.33475   0.23432
C          C       0.16107   0.16525   0.73432
C          C       0.16107   0.83475   0.23432
C          C       0.65633   0.68869   0.78126
C          C       0.65633   0.31131   0.28126
C          C       0.15633   0.18869   0.78126
C          C       0.15633   0.81131   0.28126
C          C       0.67937   0.83700   0.10095
C          C       0.67937   0.16300   0.60095
C          C       0.17937   0.33700   0.10095
C          C       0.17937   0.66300   0.60095
C          C       0.33929   0.59945   0.86494
C          C       0.33929   0.40055   0.36494
C          C       0.83929   0.09945   0.86494
C          C       0.83929   0.90055   0.36494
C          C       0.34309   0.57556   0.91592
C          C       0.34309   0.42444   0.41592
C          C       0.84309   0.07556   0.91592
C          C       0.84309   0.92444   0.41592
C          C       0.37236   0.54874   0.91122
C          C       0.37236   0.45126   0.41122
C          C       0.87236   0.04874   0.91122
C          C       0.87236   0.95126   0.41122
C          C       0.39743   0.54563   0.85514
C          C       0.39743   0.45437   0.35514
C          C       0.89743   0.04563   0.85514
C          C       0.89743   0.95437   0.35514
C          C       0.39452   0.56971   0.80443
C          C       0.39452   0.43029   0.30443
C          C       0.89452   0.06971   0.80443
C          C       0.89452   0.93029   0.30443
C          C       0.36484   0.59657   0.80932
C          C       0.36484   0.40343   0.30932
C          C       0.86484   0.09657   0.80932
C          C       0.86484   0.90343   0.30932
C          C       0.78235   0.44659   0.56185
C          C       0.78235   0.55341   0.06185
C          C       0.28235   0.94659   0.56185
C          C       0.28235   0.05341   0.06185
C          C       0.74195   0.45978   0.48948
C          C       0.74195   0.54022   0.98948
C          C       0.24195   0.95978   0.48948
C          C       0.24195   0.04022   0.98948
C          C       0.75353   0.48840   0.46897
C          C       0.75353   0.51160   0.96897
C          C       0.25353   0.98840   0.46897
C          C       0.25353   0.01160   0.96897
C          C       0.80703   0.50464   0.51956
C          C       0.80703   0.49536   0.01956
C          C       0.30703   0.00464   0.51956
C          C       0.30703   0.99536   0.01956
C          C       0.84241   0.49276   0.59674
C          C       0.84241   0.50724   0.09674
C          C       0.34241   0.99276   0.59674
C          C       0.34241   0.00724   0.09674
C          C       0.83180   0.46354   0.61626
C          C       0.83180   0.53646   0.11626
C          C       0.33180   0.96354   0.61626
C          C       0.33180   0.03646   0.11626
C          C       0.92764   0.57371   0.88251
C          C       0.92764   0.42629   0.38251
C          C       0.42764   0.07371   0.88251
C          C       0.42764   0.92629   0.38251
C          C       0.31096   0.52574   0.42094
C          C       0.31096   0.47426   0.92094
C          C       0.81096   0.02574   0.42094
C          C       0.81096   0.97426   0.92094
C          C       0.30629   0.54686   0.36244
C          C       0.30629   0.45314   0.86244
C          C       0.80629   0.04686   0.36244
C          C       0.80629   0.95314   0.86244
C          C       0.33812   0.57445   0.38571
C          C       0.33812   0.42555   0.88571
C          C       0.83812   0.07445   0.38571
C          C       0.83812   0.92555   0.88571
C          C       0.37249   0.58105   0.46650
C          C       0.37249   0.41895   0.96650
C          C       0.87249   0.08105   0.46650
C          C       0.87249   0.91895   0.96650
C          C       0.37651   0.55995   0.52492
C          C       0.37651   0.44005   0.02492
C          C       0.87651   0.05995   0.52492
C          C       0.87651   0.94005   0.02492
C          C       0.34574   0.53221   0.50148
C          C       0.34574   0.46779   0.00148
C          C       0.84574   0.03221   0.50148
C          C       0.84574   0.96779   0.00148
C          C       0.67912   0.74217   0.07286
C          C       0.67912   0.25783   0.57286
C          C       0.17912   0.24217   0.07286
C          C       0.17912   0.75783   0.57286
N          N       0.08702   0.54766   0.56242
N          N       0.08702   0.45234   0.06242
N          N       0.58702   0.04766   0.56242
N          N       0.58702   0.95234   0.06242
C          C       0.71998   0.65343   0.74806
C          C       0.71998   0.34657   0.24806
C          C       0.21998   0.15343   0.74806
C          C       0.21998   0.84657   0.24806
N          N       0.81932   0.55221   0.82575
N          N       0.81932   0.44779   0.32575
N          N       0.31932   0.05221   0.82575
N          N       0.31932   0.94779   0.32575
C          C       0.76936   0.68843   0.85723
C          C       0.76936   0.31157   0.35723
C          C       0.26936   0.18843   0.85723
C          C       0.26936   0.81157   0.35723
C          C       0.71050   0.70053   0.84202
C          C       0.71050   0.29947   0.34202
C          C       0.21050   0.20053   0.84202
C          C       0.21050   0.79947   0.34202
C          C       0.61559   0.84500   0.07059
C          C       0.61559   0.15500   0.57059
C          C       0.11559   0.34500   0.07059
C          C       0.11559   0.65500   0.57059
C          C       0.07478   0.46975   0.76845
C          C       0.07478   0.53025   0.26845
C          C       0.57478   0.96975   0.76845
C          C       0.57478   0.03025   0.26845
C          C       0.06415   0.49876   0.78926
C          C       0.06415   0.50124   0.28926
C          C       0.56415   0.99876   0.78926
C          C       0.56415   0.00124   0.28926
C          C       0.09923   0.51017   0.86703
C          C       0.09923   0.48983   0.36703
C          C       0.59923   0.01017   0.86703
C          C       0.59923   0.98983   0.36703
C          C       0.15187   0.49343   0.91769
C          C       0.15187   0.50657   0.41769
C          C       0.65187   0.99343   0.91769
C          C       0.65187   0.00657   0.41769
C          C       0.16289   0.46481   0.89648
C          C       0.16289   0.53519   0.39648
C          C       0.66289   0.96481   0.89648
C          C       0.66289   0.03519   0.39648
C          C       0.12331   0.45225   0.82267
C          C       0.12331   0.54775   0.32267
C          C       0.62331   0.95225   0.82267
C          C       0.62331   0.04775   0.32267
C          C       0.04468   0.57862   0.77256
C          C       0.04468   0.42138   0.27256
C          C       0.54468   0.07862   0.77256
C          C       0.54468   0.92138   0.27256
C          C       0.09405   0.56320   0.83381
C          C       0.09405   0.43680   0.33381
C          C       0.59405   0.06320   0.83381
C          C       0.59405   0.93680   0.33381
C          C       0.15468   0.56526   0.83576
C          C       0.15468   0.43474   0.33576
C          C       0.65468   0.06526   0.83576
C          C       0.65468   0.93474   0.33576
C          C       0.16603   0.58356   0.78226
C          C       0.16603   0.41644   0.28226
C          C       0.66603   0.08356   0.78226
C          C       0.66603   0.91644   0.28226
C          C       0.11743   0.59995   0.72501
C          C       0.11743   0.40005   0.22501
C          C       0.61743   0.09995   0.72501
C          C       0.61743   0.90005   0.22501
C          C       0.05634   0.59719   0.71996
C          C       0.05634   0.40281   0.21996
C          C       0.55634   0.09719   0.71996
C          C       0.55634   0.90281   0.21996
C          C       0.78404   0.52449   0.34845
C          C       0.78404   0.47551   0.84845
C          C       0.28404   0.02449   0.34845
C          C       0.28404   0.97551   0.84845
C          C       0.89224   0.53749   0.50493
C          C       0.89224   0.46251   0.00493
C          C       0.39224   0.03749   0.50493
C          C       0.39224   0.96251   0.00493
C          C       0.77415   0.66483   0.81067
C          C       0.77415   0.33517   0.31067
C          C       0.27415   0.16483   0.81067
C          C       0.27415   0.83517   0.31067
C          C       0.69892   0.81473   0.06365
C          C       0.69892   0.18527   0.56365
C          C       0.19892   0.31473   0.06365
C          C       0.19892   0.68527   0.56365
C          C       0.61977   0.74316   0.07403
C          C       0.61977   0.25684   0.57403
C          C       0.11977   0.24316   0.07403
C          C       0.11977   0.75684   0.57403
C          C       0.81292   0.55759   0.55418
C          C       0.81292   0.44241   0.05418
C          C       0.31292   0.05759   0.55418
C          C       0.31292   0.94241   0.05418
C          C       0.86226   0.57322   0.61509
C          C       0.86226   0.42678   0.11509
C          C       0.36226   0.07322   0.61509
C          C       0.36226   0.92678   0.11509
C          C       0.84995   0.59265   0.66573
C          C       0.84995   0.40735   0.16573
C          C       0.34995   0.09265   0.66573
C          C       0.34995   0.90735   0.16573
C          C       0.78889   0.59640   0.65843
C          C       0.78889   0.40360   0.15843
C          C       0.28889   0.09640   0.65843
C          C       0.28889   0.90360   0.15843
C          C       0.74041   0.57869   0.60382
C          C       0.74041   0.42131   0.10382
C          C       0.24041   0.07869   0.60382
C          C       0.24041   0.92131   0.10382
C          C       0.75236   0.55959   0.55234
C          C       0.75236   0.44041   0.05234
C          C       0.25236   0.05959   0.55234
C          C       0.25236   0.94041   0.05234
C          C       0.59325   0.86667   0.11214
C          C       0.59325   0.13333   0.61214
C          C       0.09325   0.36667   0.11214
C          C       0.09325   0.63333   0.61214
C          C       0.16225   0.57468   0.00603
C          C       0.16225   0.42532   0.50603
C          C       0.66225   0.07468   0.00603
C          C       0.66225   0.92532   0.50603
C          C       0.12403   0.54879   0.97970
C          C       0.12403   0.45121   0.47970
C          C       0.62403   0.04879   0.97970
C          C       0.62403   0.95121   0.47970
C          C       0.12161   0.52929   0.03822
C          C       0.12161   0.47071   0.53822
C          C       0.62161   0.02929   0.03822
C          C       0.62161   0.97071   0.53822
C          C       0.15946   0.53370   0.11891
C          C       0.15946   0.46630   0.61891
C          C       0.65946   0.03370   0.11891
C          C       0.65946   0.96630   0.61891
C          C       0.20230   0.55767   0.14358
C          C       0.20230   0.44233   0.64358
C          C       0.70230   0.05767   0.14358
C          C       0.70230   0.94233   0.64358
C          C       0.20154   0.57871   0.08691
C          C       0.20154   0.42129   0.58691
C          C       0.70154   0.07871   0.08691
C          C       0.70154   0.92129   0.58691
C          C       0.59656   0.52479   0.96421
C          C       0.59656   0.47521   0.46421
C          C       0.09656   0.02479   0.96421
C          C       0.09656   0.97521   0.46421
C          C       0.56115   0.53186   0.88420
C          C       0.56115   0.46814   0.38420
C          C       0.06115   0.03186   0.88420
C          C       0.06115   0.96814   0.38420
C          C       0.52945   0.55946   0.86266
C          C       0.52945   0.44054   0.36266
C          C       0.02945   0.05946   0.86266
C          C       0.02945   0.94054   0.36266
C          C       0.53317   0.57980   0.92258
C          C       0.53317   0.42020   0.42258
C          C       0.03317   0.07980   0.92258
C          C       0.03317   0.92020   0.42258
C          C       0.56797   0.57252   0.00290
C          C       0.56797   0.42748   0.50290
C          C       0.06797   0.07252   0.00290
C          C       0.06797   0.92748   0.50290
C          C       0.60087   0.54512   0.02421
C          C       0.60087   0.45488   0.52421
C          C       0.10087   0.04512   0.02421
C          C       0.10087   0.95488   0.52421
C          C       0.67442   0.77522   0.96016
C          C       0.67442   0.22478   0.46016
C          C       0.17442   0.27522   0.96016
C          C       0.17442   0.72478   0.46016
C          C       0.68552   0.74679   0.99706
C          C       0.68552   0.25321   0.49706
C          C       0.18552   0.24679   0.99706
C          C       0.18552   0.75321   0.49706
C          C       0.70177   0.72259   0.96073
C          C       0.70177   0.27741   0.46073
C          C       0.20177   0.22259   0.96073
C          C       0.20177   0.77741   0.46073
C          C       0.70501   0.72670   0.88696
C          C       0.70501   0.27330   0.38696
C          C       0.20501   0.22670   0.88696
C          C       0.20501   0.77330   0.38696
C          C       0.69636   0.75541   0.85176
C          C       0.69636   0.24459   0.35176
C          C       0.19636   0.25541   0.85176
C          C       0.19636   0.74459   0.35176
C          C       0.68172   0.77974   0.88910
C          C       0.68172   0.22026   0.38910
C          C       0.18172   0.27974   0.88910
C          C       0.18172   0.72026   0.38910
C          C       0.57216   0.83112   0.00148
C          C       0.57216   0.16888   0.50148
C          C       0.07216   0.33112   0.00148
C          C       0.07216   0.66888   0.50148
C          C       0.59177   0.80878   0.96443
C          C       0.59177   0.19122   0.46443
C          C       0.09177   0.30878   0.96443
C          C       0.09177   0.69122   0.46443
C          C       0.77502   0.64936   0.05810
C          C       0.77502   0.35064   0.55810
C          C       0.27502   0.14936   0.05810
C          C       0.27502   0.85064   0.55810
C          C       0.76890   0.67948   0.03475
C          C       0.76890   0.32052   0.53475
C          C       0.26890   0.17948   0.03475
C          C       0.26890   0.82052   0.53475
C          C       0.70915   0.69223   0.99544
C          C       0.70915   0.30777   0.49544
C          C       0.20915   0.19223   0.99544
C          C       0.20915   0.80777   0.49544
C          C       0.65576   0.67541   0.98408
C          C       0.65576   0.32459   0.48408
C          C       0.15576   0.17541   0.98408
C          C       0.15576   0.82459   0.48408
C          C       0.66179   0.64540   0.00736
C          C       0.66179   0.35460   0.50736
C          C       0.16179   0.14540   0.00736
C          C       0.16179   0.85460   0.50736
C          C       0.72120   0.63190   0.04213
C          C       0.72120   0.36810   0.54213
C          C       0.22120   0.13190   0.04213
C          C       0.22120   0.86810   0.54213
C          C       0.70465   0.55391   0.24415
C          C       0.70465   0.44609   0.74415
C          C       0.20465   0.05391   0.24415
C          C       0.20465   0.94609   0.74415
C          C       0.64264   0.53787   0.10764
C          C       0.64264   0.46213   0.60764
C          C       0.14264   0.03787   0.10764
C          C       0.14264   0.96213   0.60764
C          C       0.70583   0.57457   0.30185
C          C       0.70583   0.42543   0.80185
C          C       0.20583   0.07457   0.30185
C          C       0.20583   0.92543   0.80185
C          C       0.67914   0.90557   0.83814
C          C       0.67914   0.09443   0.33814
C          C       0.17914   0.40557   0.83814
C          C       0.17914   0.59443   0.33814
C          C       0.65500   0.80034   0.99606
C          C       0.65500   0.19966   0.49606
C          C       0.15500   0.30034   0.99606
C          C       0.15500   0.69966   0.49606
C          C       0.64769   0.76602   0.70534
C          C       0.64769   0.23398   0.20534
C          C       0.14769   0.26602   0.70534
C          C       0.14769   0.73398   0.20534
C          C       0.74667   0.52959   0.26786
C          C       0.74667   0.47041   0.76786
C          C       0.24667   0.02959   0.26786
C          C       0.24667   0.97041   0.76786
C          C       0.72618   0.73158   0.21483
C          C       0.72618   0.26842   0.71483
C          C       0.22618   0.23158   0.21483
C          C       0.22618   0.76842   0.71483
C          C       0.73235   0.73631   0.14369
C          C       0.73235   0.26369   0.64369
C          C       0.23235   0.23631   0.14369
C          C       0.23235   0.76369   0.64369
C          C       0.71067   0.76755   0.63000
C          C       0.71067   0.23245   0.13000
C          C       0.21067   0.26755   0.63000
C          C       0.21067   0.73245   0.13000
C          C       0.70147   0.75984   0.77519
C          C       0.70147   0.24016   0.27519
C          C       0.20147   0.25984   0.77519
C          C       0.20147   0.74016   0.27519
C          C       0.65237   0.76992   0.63303
C          C       0.65237   0.23008   0.13303
C          C       0.15237   0.26992   0.63303
C          C       0.15237   0.73008   0.13303
C          C       0.76438   0.76137   0.69938
C          C       0.76438   0.23863   0.19938
C          C       0.26438   0.26137   0.69938
C          C       0.26438   0.73863   0.19938
N          N       0.66127   0.55857   0.16246
N          N       0.66127   0.44143   0.66246
N          N       0.16127   0.05857   0.16246
N          N       0.16127   0.94143   0.66246
N          N       0.77764   0.41519   0.57610
N          N       0.77764   0.58481   0.07610
N          N       0.27764   0.91519   0.57610
N          N       0.27764   0.08481   0.07610
N          N       0.13278   0.62017   0.67591
N          N       0.13278   0.37983   0.17591
N          N       0.63278   0.12017   0.67591
N          N       0.63278   0.87983   0.17591
C          C       0.99112   0.57028   0.89883
C          C       0.99112   0.42972   0.39883
C          C       0.49112   0.07028   0.89883
C          C       0.49112   0.92972   0.39883
C          C       0.72414   0.62981   0.69550
C          C       0.72414   0.37019   0.19550
C          C       0.22414   0.12981   0.69550
C          C       0.22414   0.87019   0.19550
N          N       0.77819   0.61871   0.70689
N          N       0.77819   0.38129   0.20689
N          N       0.27819   0.11871   0.70689
N          N       0.27819   0.88129   0.20689
C          C       0.61386   0.73856   0.14536
C          C       0.61386   0.26144   0.64536
C          C       0.11386   0.23856   0.14536
C          C       0.11386   0.76144   0.64536
C          C       0.66700   0.73274   0.21571
C          C       0.66700   0.26726   0.71571
C          C       0.16700   0.23274   0.21571
C          C       0.16700   0.76726   0.71571
C          C       0.99802   0.51728   0.55176
C          C       0.99802   0.48272   0.05176
C          C       0.49802   0.01728   0.55176
C          C       0.49802   0.98272   0.05176
C          C       0.97811   0.56831   0.50313
C          C       0.97811   0.43169   0.00313
C          C       0.47811   0.06831   0.50313
C          C       0.47811   0.93169   0.00313
H          H       0.81394   0.59202   0.88130
H          H       0.81394   0.40798   0.38130
H          H       0.31394   0.09202   0.88130
H          H       0.31394   0.90798   0.38130
H          H       0.98731   0.49605   0.84992
H          H       0.98731   0.50395   0.34992
H          H       0.48731   0.99605   0.84992
H          H       0.48731   0.00395   0.34992
H          H       0.19035   0.60930   0.51381
H          H       0.19035   0.39070   0.01381
H          H       0.69035   0.10930   0.51381
H          H       0.69035   0.89070   0.01381
H          H       0.19773   0.52761   0.64349
H          H       0.19773   0.47239   0.14349
H          H       0.69773   0.02761   0.64349
H          H       0.69773   0.97239   0.14349
H          H       0.31154   0.52646   0.69190
H          H       0.31154   0.47354   0.19190
H          H       0.81154   0.02646   0.69190
H          H       0.81154   0.97354   0.19190
H          H       0.30539   0.60908   0.56654
H          H       0.30539   0.39092   0.06654
H          H       0.80539   0.10908   0.56654
H          H       0.80539   0.89092   0.06654
H          H       0.09023   0.58583   0.49965
H          H       0.09023   0.41417   0.99965
H          H       0.59023   0.08583   0.49965
H          H       0.59023   0.91417   0.99965
H          H       0.74481   0.58690   0.42433
H          H       0.74481   0.41310   0.92433
H          H       0.24481   0.08690   0.42433
H          H       0.24481   0.91310   0.92433
H          H       0.68135   0.58685   0.01870
H          H       0.68135   0.41315   0.51870
H          H       0.18135   0.08685   0.01870
H          H       0.18135   0.91315   0.51870
H          H       0.87757   0.50367   0.80962
H          H       0.87757   0.49633   0.30962
H          H       0.37757   0.00367   0.80962
H          H       0.37757   0.99633   0.30962
H          H       0.91997   0.49071   0.53817
H          H       0.91997   0.50929   0.03817
H          H       0.41997   0.99071   0.53817
H          H       0.41997   0.00929   0.03817
H          H       0.54165   0.61571   0.61406
H          H       0.54165   0.38429   0.11406
H          H       0.04165   0.11571   0.61406
H          H       0.04165   0.88429   0.11406
H          H       0.48657   0.52438   0.53790
H          H       0.48657   0.47562   0.03790
H          H       0.98657   0.02438   0.53790
H          H       0.98657   0.97562   0.03790
H          H       0.52905   0.52973   0.43699
H          H       0.52905   0.47027   0.93699
H          H       0.02905   0.02973   0.43699
H          H       0.02905   0.97027   0.93699
H          H       0.58006   0.57725   0.42632
H          H       0.58006   0.42275   0.92632
H          H       0.08006   0.07725   0.42632
H          H       0.08006   0.92275   0.92632
H          H       0.58601   0.62022   0.51466
H          H       0.58601   0.37978   0.01466
H          H       0.08601   0.12022   0.51466
H          H       0.08601   0.87978   0.01466
H          H       0.88370   0.58385   0.46473
H          H       0.88370   0.41615   0.96473
H          H       0.38370   0.08385   0.46473
H          H       0.38370   0.91615   0.96473
H          H       0.80180   0.75276   0.82526
H          H       0.80180   0.24724   0.32526
H          H       0.30180   0.25276   0.82526
H          H       0.30180   0.74724   0.32526
H          H       0.59752   0.61062   0.82016
H          H       0.59752   0.38938   0.32016
H          H       0.09752   0.11062   0.82016
H          H       0.09752   0.88938   0.32016
H          H       0.59656   0.52807   0.69706
H          H       0.59656   0.47193   0.19706
H          H       0.09656   0.02807   0.69706
H          H       0.09656   0.97193   0.19706
H          H       0.71002   0.53128   0.74379
H          H       0.71002   0.46872   0.24379
H          H       0.21002   0.03128   0.74379
H          H       0.21002   0.96872   0.24379
H          H       0.71243   0.61278   0.87178
H          H       0.71243   0.38722   0.37178
H          H       0.21243   0.11278   0.87178
H          H       0.21243   0.88722   0.37178
H          H       0.77992   0.87010   0.90408
H          H       0.77992   0.12990   0.40408
H          H       0.27992   0.37010   0.90408
H          H       0.27992   0.62990   0.40408
H          H       0.57901   0.86708   0.76719
H          H       0.57901   0.13292   0.26719
H          H       0.07901   0.36708   0.76719
H          H       0.07901   0.63292   0.26719
H          H       0.58081   0.81254   0.78999
H          H       0.58081   0.18746   0.28999
H          H       0.08081   0.31254   0.78999
H          H       0.08081   0.68746   0.28999
H          H       0.78115   0.81591   0.92616
H          H       0.78115   0.18409   0.42616
H          H       0.28115   0.31591   0.92616
H          H       0.28115   0.68409   0.42616
H          H       0.24856   0.51742   0.26290
H          H       0.24856   0.48258   0.76290
H          H       0.74856   0.01742   0.26290
H          H       0.74856   0.98258   0.76290
H          H       0.61889   0.65660   0.68668
H          H       0.61889   0.34340   0.18668
H          H       0.11889   0.15660   0.68668
H          H       0.11889   0.84340   0.18668
H          H       0.61068   0.69804   0.76947
H          H       0.61068   0.30196   0.26947
H          H       0.11068   0.19804   0.76947
H          H       0.11068   0.80196   0.26947
H          H       0.71387   0.84753   0.15411
H          H       0.71387   0.15247   0.65411
H          H       0.21387   0.34753   0.15411
H          H       0.21387   0.65247   0.65411
H          H       0.31658   0.62021   0.86858
H          H       0.31658   0.37979   0.36858
H          H       0.81658   0.12021   0.86858
H          H       0.81658   0.87979   0.36858
H          H       0.32344   0.57786   0.95912
H          H       0.32344   0.42214   0.45912
H          H       0.82344   0.07786   0.95912
H          H       0.82344   0.92214   0.45912
H          H       0.37619   0.53047   0.95159
H          H       0.37619   0.46953   0.45159
H          H       0.87619   0.03047   0.95159
H          H       0.87619   0.96953   0.45159
H          H       0.41994   0.52470   0.85205
H          H       0.41994   0.47530   0.35205
H          H       0.91994   0.02470   0.85205
H          H       0.91994   0.97530   0.35205
H          H       0.36217   0.61533   0.77066
H          H       0.36217   0.38467   0.27066
H          H       0.86217   0.11533   0.77066
H          H       0.86217   0.88467   0.27066
H          H       0.70240   0.44762   0.44672
H          H       0.70240   0.55238   0.94672
H          H       0.20240   0.94762   0.44672
H          H       0.20240   0.05238   0.94672
H          H       0.72003   0.49735   0.41293
H          H       0.72003   0.50265   0.91293
H          H       0.22003   0.99735   0.41293
H          H       0.22003   0.00265   0.91293
H          H       0.88097   0.50549   0.64017
H          H       0.88097   0.49451   0.14017
H          H       0.38097   0.00549   0.64017
H          H       0.38097   0.99451   0.14017
H          H       0.86274   0.45396   0.67311
H          H       0.86274   0.54604   0.17311
H          H       0.36274   0.95396   0.67311
H          H       0.36274   0.04604   0.17311
H          H       0.91163   0.59542   0.89276
H          H       0.91163   0.40458   0.39276
H          H       0.41163   0.09542   0.89276
H          H       0.41163   0.90458   0.39276
H          H       0.28615   0.50451   0.40435
H          H       0.28615   0.49549   0.90435
H          H       0.78615   0.00451   0.40435
H          H       0.78615   0.99549   0.90435
H          H       0.33520   0.59116   0.34167
H          H       0.33520   0.40884   0.84167
H          H       0.83520   0.09116   0.34167
H          H       0.83520   0.90884   0.84167
H          H       0.39604   0.60255   0.48357
H          H       0.39604   0.39745   0.98357
H          H       0.89604   0.10255   0.48357
H          H       0.89604   0.89745   0.98357
H          H       0.34875   0.51557   0.54574
H          H       0.34875   0.48443   0.04574
H          H       0.84875   0.01557   0.54574
H          H       0.84875   0.98443   0.04574
H          H       0.81140   0.69765   0.90398
H          H       0.81140   0.30235   0.40398
H          H       0.31140   0.19765   0.90398
H          H       0.31140   0.80235   0.40398
H          H       0.04439   0.46069   0.71066
H          H       0.04439   0.53931   0.21066
H          H       0.54439   0.96069   0.71066
H          H       0.54439   0.03931   0.21066
H          H       0.02596   0.51175   0.74610
H          H       0.02596   0.48825   0.24610
H          H       0.52596   0.01175   0.74610
H          H       0.52596   0.98825   0.24610
H          H       0.18506   0.50191   0.97449
H          H       0.18506   0.49809   0.47449
H          H       0.68506   0.00191   0.97449
H          H       0.68506   0.99809   0.47449
H          H       0.20147   0.45235   0.93988
H          H       0.20147   0.54765   0.43988
H          H       0.70147   0.95235   0.93988
H          H       0.70147   0.04765   0.43988
H          H       0.99644   0.57634   0.76347
H          H       0.99644   0.42366   0.26347
H          H       0.49644   0.07634   0.76347
H          H       0.49644   0.92366   0.26347
H          H       0.19340   0.55266   0.87927
H          H       0.19340   0.44734   0.37927
H          H       0.69340   0.05266   0.87927
H          H       0.69340   0.94734   0.37927
H          H       0.21291   0.58503   0.78523
H          H       0.21291   0.41497   0.28523
H          H       0.71291   0.08503   0.78523
H          H       0.71291   0.91497   0.28523
H          H       0.01718   0.60937   0.67642
H          H       0.01718   0.39063   0.17642
H          H       0.51718   0.10937   0.67642
H          H       0.51718   0.89063   0.17642
H          H       0.81304   0.50468   0.36590
H          H       0.81304   0.49532   0.86590
H          H       0.31304   0.00468   0.36590
H          H       0.31304   0.99532   0.86590
H          H       0.82018   0.65593   0.82273
H          H       0.82018   0.34407   0.32273
H          H       0.32018   0.15593   0.82273
H          H       0.32018   0.84407   0.32273
H          H       0.74788   0.80823   0.08818
H          H       0.74788   0.19177   0.58818
H          H       0.24788   0.30823   0.08818
H          H       0.24788   0.69177   0.58818
H          H       0.57820   0.74736   0.01972
H          H       0.57820   0.25264   0.51972
H          H       0.07820   0.24736   0.01972
H          H       0.07820   0.75264   0.51972
H          H       0.91063   0.57062   0.62487
H          H       0.91063   0.42938   0.12487
H          H       0.41063   0.07062   0.62487
H          H       0.41063   0.92938   0.12487
H          H       0.88811   0.60522   0.71025
H          H       0.88811   0.39478   0.21025
H          H       0.38811   0.10522   0.71025
H          H       0.38811   0.89478   0.21025
H          H       0.69342   0.57934   0.60044
H          H       0.69342   0.42066   0.10044
H          H       0.19342   0.07934   0.60044
H          H       0.19342   0.92066   0.10044
H          H       0.71392   0.54650   0.50993
H          H       0.71392   0.45350   0.00993
H          H       0.21392   0.04650   0.50993
H          H       0.21392   0.95350   0.00993
H          H       0.54353   0.87112   0.08874
H          H       0.54353   0.12888   0.58874
H          H       0.04353   0.37112   0.08874
H          H       0.04353   0.62888   0.58874
H          H       0.16272   0.59187   0.96502
H          H       0.16272   0.40813   0.46502
H          H       0.66272   0.09187   0.96502
H          H       0.66272   0.90813   0.46502
H          H       0.09201   0.50970   0.01991
H          H       0.09201   0.49030   0.51991
H          H       0.59201   0.00970   0.01991
H          H       0.59201   0.99030   0.51991
H          H       0.15508   0.51824   0.16139
H          H       0.15508   0.48176   0.66139
H          H       0.65508   0.01824   0.16139
H          H       0.65508   0.98176   0.66139
H          H       0.23219   0.59811   0.10539
H          H       0.23219   0.40189   0.60539
H          H       0.73219   0.09811   0.10539
H          H       0.73219   0.90189   0.60539
H          H       0.62200   0.50370   0.97923
H          H       0.62200   0.49630   0.47923
H          H       0.12200   0.00370   0.97923
H          H       0.12200   0.99630   0.47923
H          H       0.55842   0.51578   0.83883
H          H       0.55842   0.48422   0.33883
H          H       0.05842   0.01578   0.83883
H          H       0.05842   0.98422   0.33883
H          H       0.50896   0.60119   0.90707
H          H       0.50896   0.39881   0.40707
H          H       0.00896   0.10119   0.90707
H          H       0.00896   0.89881   0.40707
H          H       0.57048   0.58859   0.04814
H          H       0.57048   0.41141   0.54814
H          H       0.07048   0.08859   0.04814
H          H       0.07048   0.91141   0.54814
H          H       0.52291   0.83709   0.97730
H          H       0.52291   0.16291   0.47730
H          H       0.02291   0.33709   0.97730
H          H       0.02291   0.66291   0.47730
H          H       0.55761   0.79754   0.91228
H          H       0.55761   0.20246   0.41228
H          H       0.05761   0.29754   0.91228
H          H       0.05761   0.70246   0.41228
H          H       0.82134   0.63938   0.08432
H          H       0.82134   0.36062   0.58432
H          H       0.32134   0.13938   0.08432
H          H       0.32134   0.86062   0.58432
H          H       0.81042   0.69250   0.04419
H          H       0.81042   0.30750   0.54419
H          H       0.31042   0.19250   0.04419
H          H       0.31042   0.80750   0.54419
H          H       0.60944   0.68519   0.95406
H          H       0.60944   0.31481   0.45406
H          H       0.10944   0.18519   0.95406
H          H       0.10944   0.81481   0.45406
H          H       0.61975   0.63230   0.99423
H          H       0.61975   0.36770   0.49423
H          H       0.11975   0.13230   0.99423
H          H       0.11975   0.86770   0.49423
H          H       0.65876   0.51489   0.12158
H          H       0.65876   0.48511   0.62158
H          H       0.15876   0.01489   0.12158
H          H       0.15876   0.98511   0.62158
H          H       0.67586   0.59423   0.28424
H          H       0.67586   0.40577   0.78424
H          H       0.17586   0.09423   0.28424
H          H       0.17586   0.90577   0.78424
H          H       0.72229   0.91629   0.87676
H          H       0.72229   0.08371   0.37676
H          H       0.22229   0.41629   0.87676
H          H       0.22229   0.58371   0.37676
H          H       0.60223   0.76761   0.70692
H          H       0.60223   0.23239   0.20692
H          H       0.10223   0.26761   0.70692
H          H       0.10223   0.73239   0.20692
H          H       0.75087   0.51441   0.22470
H          H       0.75087   0.48559   0.72470
H          H       0.25087   0.01441   0.22470
H          H       0.25087   0.98559   0.72470
H          H       0.76727   0.72700   0.26927
H          H       0.76727   0.27300   0.76927
H          H       0.26727   0.22700   0.26927
H          H       0.26727   0.77300   0.76927
H          H       0.77844   0.73539   0.14371
H          H       0.77844   0.26461   0.64371
H          H       0.27844   0.23539   0.14371
H          H       0.27844   0.76461   0.64371
H          H       0.71421   0.77051   0.57393
H          H       0.71421   0.22949   0.07393
H          H       0.21421   0.27051   0.57393
H          H       0.21421   0.72949   0.07393
H          H       0.61079   0.77468   0.57932
H          H       0.61079   0.22532   0.07932
H          H       0.11079   0.27468   0.57932
H          H       0.11079   0.72532   0.07932
H          H       0.80948   0.75957   0.69699
H          H       0.80948   0.24043   0.19699
H          H       0.30948   0.25957   0.69699
H          H       0.30948   0.74043   0.19699
H          H       0.02198   0.58950   0.92086
H          H       0.02198   0.41050   0.42086
H          H       0.52198   0.08950   0.92086
H          H       0.52198   0.91050   0.42086
H          H       0.68168   0.62284   0.64577
H          H       0.68168   0.37716   0.14577
H          H       0.18168   0.12284   0.64577
H          H       0.18168   0.87716   0.14577
H          H       0.56805   0.73940   0.14603
H          H       0.56805   0.26060   0.64603
H          H       0.06805   0.23940   0.14603
H          H       0.06805   0.76060   0.64603
H          H       0.66231   0.72906   0.27085
H          H       0.66231   0.27094   0.77085
H          H       0.16231   0.22906   0.27085
H          H       0.16231   0.77094   0.77085
H          H       0.02971   0.49889   0.57966
H          H       0.02971   0.50111   0.07966
H          H       0.52971   0.99889   0.57966
H          H       0.52971   0.00111   0.07966
H          H       0.99347   0.58987   0.49113
H          H       0.99347   0.41013   0.99113
H          H       0.49347   0.08987   0.49113
H          H       0.49347   0.91013   0.99113
