data_Star-COF-2
_audit_creation_date              0000-00-00
_audit_creation_method            'LanYouShi'
_symmetry_space_group_name_H-M    'P1'
_cell_length_a                    46.3300018
_cell_length_b                    46.3300018
_cell_length_c                    3.4200001
_cell_angle_alpha                 90.0000000
_cell_angle_beta                  90.0000000
_cell_angle_gamma                 120.0000000
loop_
_atom_site_label
_atom_site_type_symbol
_atom_site_fract_x
_atom_site_fract_y
_atom_site_fract_z
_atom_site_U_iso_or_equiv
_atom_site_adp_type
_atom_site_occupancy
        C1          C  0.0188000  0.5639000  0.5000000    0.00000       Uiso       1.00
        C2          C  0.0365000  0.5461000  0.5000000    0.00000       Uiso       1.00
        C3          C  0.0721000  0.5639000  0.5000000    0.00000       Uiso       1.00
        C4          C  0.1802000  0.6067000  0.5000000    0.00000       Uiso       1.00
        C5          C  0.2109000  0.6373000  0.5000000    0.00000       Uiso       1.00
        C6          C  0.2110000  0.6682000  0.5000000    0.00000       Uiso       1.00
        C7          C  0.2394000  0.6966000  0.5000000    0.00000       Uiso       1.00
        C8          C  0.2703000  0.6966000  0.5000000    0.00000       Uiso       1.00
        C9          C  0.2703000  0.6657999  0.5000000    0.00000       Uiso       1.00
       C10          C  0.2418000  0.6373000  0.5000000    0.00000       Uiso       1.00
        O1          O  0.1438000  0.5987000  0.5000000    0.00000       Uiso       1.00
        H1          H  0.0320215  0.5908796  0.5000000    0.00000       Uiso       1.00
        H2          H  0.0858228  0.5909786  0.5000000    0.00000       Uiso       1.00
        H3          H  0.1876722  0.6683335  0.5000000    0.00000       Uiso       1.00
        H4          H  0.2374173  0.7187132  0.5000000    0.00000       Uiso       1.00
        H5          H  0.2926976  0.6665909  0.5000000    0.00000       Uiso       1.00
       C11          C  0.4361000  0.4549000  0.5000000    0.00000       Uiso       1.00
       C12          C  0.4539000  0.4904000  0.5000000    0.00000       Uiso       1.00
       C13          C  0.4361000  0.5082000  0.5000000    0.00000       Uiso       1.00
       C14          C  0.3933000  0.5735000  0.5000000    0.00000       Uiso       1.00
       C15          C  0.3627000  0.5735999  0.5000000    0.00000       Uiso       1.00
       C16          C  0.3318000  0.5427999  0.5000000    0.00000       Uiso       1.00
       C17          C  0.3034000  0.5427999  0.5000000    0.00000       Uiso       1.00
       C18          C  0.3034000  0.5737000  0.5000000    0.00000       Uiso       1.00
       C19          C  0.3342000  0.6045000  0.5000000    0.00000       Uiso       1.00
       C20          C  0.3627000  0.6044999  0.5000000    0.00000       Uiso       1.00
        O2          O  0.4013000  0.5451000  0.5000000    0.00000       Uiso       1.00
        H6          H  0.4091204  0.4411419  0.5000000    0.00000       Uiso       1.00
        H7          H  0.4090214  0.4948442  0.5000000    0.00000       Uiso       1.00
        H8          H  0.3316665  0.5193387  0.5000000    0.00000       Uiso       1.00
        H9          H  0.2812867  0.5187041  0.5000000    0.00000       Uiso       1.00
       H10          H  0.3334091  0.6261067  0.5000000    0.00000       Uiso       1.00
       C21          C  0.5451000  0.9811999  0.5000000    0.00000       Uiso       1.00
       C22          C  0.5096000  0.9635000  0.5000000    0.00000       Uiso       1.00
       C23          C  0.4918000  0.9279000  0.5000000    0.00000       Uiso       1.00
       C24          C  0.4265000  0.8198000  0.5000000    0.00000       Uiso       1.00
       C25          C  0.4264000  0.7891000  0.5000000    0.00000       Uiso       1.00
       C26          C  0.4572000  0.7890000  0.5000000    0.00000       Uiso       1.00
       C27          C  0.4572000  0.7606000  0.5000000    0.00000       Uiso       1.00
       C28          C  0.4263000  0.7297000  0.5000000    0.00000       Uiso       1.00
       C29          C  0.3954999  0.7297000  0.5000000    0.00000       Uiso       1.00
       C30          C  0.3955000  0.7582000  0.5000000    0.00000       Uiso       1.00
        O3          O  0.4549000  0.8562000  0.5000000    0.00000       Uiso       1.00
       H11          H  0.5588580  0.9679784  0.5000000    0.00000       Uiso       1.00
       H12          H  0.5051557  0.9141772  0.5000000    0.00000       Uiso       1.00
       H13          H  0.4806612  0.8123277  0.5000000    0.00000       Uiso       1.00
       H14          H  0.4812959  0.7625826  0.5000000    0.00000       Uiso       1.00
       H15          H  0.3738933  0.7073024  0.5000000    0.00000       Uiso       1.00
       C31          C  0.9812000  0.4361000  0.5000000    0.00000       Uiso       1.00
       C32          C  0.9635000  0.4538999  0.5000000    0.00000       Uiso       1.00
       C33          C  0.9279000  0.4361000  0.5000000    0.00000       Uiso       1.00
       C34          C  0.8198000  0.3933000  0.5000000    0.00000       Uiso       1.00
       C35          C  0.7891000  0.3627000  0.5000000    0.00000       Uiso       1.00
       C36          C  0.7890000  0.3318000  0.5000000    0.00000       Uiso       1.00
       C37          C  0.7606000  0.3034000  0.5000000    0.00000       Uiso       1.00
       C38          C  0.7297000  0.3034000  0.5000000    0.00000       Uiso       1.00
       C39          C  0.7297000  0.3342000  0.5000000    0.00000       Uiso       1.00
       C40          C  0.7582000  0.3627000  0.5000000    0.00000       Uiso       1.00
        O4          O  0.8562000  0.4013000  0.5000000    0.00000       Uiso       1.00
       H16          H  0.9679784  0.4091204  0.5000000    0.00000       Uiso       1.00
       H17          H  0.9141772  0.4090214  0.5000000    0.00000       Uiso       1.00
       H18          H  0.8123277  0.3316665  0.5000000    0.00000       Uiso       1.00
       H19          H  0.7625826  0.2812867  0.5000000    0.00000       Uiso       1.00
       H20          H  0.7073024  0.3334091  0.5000000    0.00000       Uiso       1.00
       C41          C  0.5638999  0.5451000  0.5000000    0.00000       Uiso       1.00
       C42          C  0.5461000  0.5096000  0.5000000    0.00000       Uiso       1.00
       C43          C  0.5638999  0.4918000  0.5000000    0.00000       Uiso       1.00
       C44          C  0.6067000  0.4265000  0.5000000    0.00000       Uiso       1.00
       C45          C  0.6373000  0.4264000  0.5000000    0.00000       Uiso       1.00
       C46          C  0.6682000  0.4572000  0.5000000    0.00000       Uiso       1.00
       C47          C  0.6966000  0.4572000  0.5000000    0.00000       Uiso       1.00
       C48          C  0.6966000  0.4263000  0.5000000    0.00000       Uiso       1.00
       C49          C  0.6657999  0.3955000  0.5000000    0.00000       Uiso       1.00
       C50          C  0.6373000  0.3955000  0.5000000    0.00000       Uiso       1.00
        O5          O  0.5987000  0.4549000  0.5000000    0.00000       Uiso       1.00
       H21          H  0.5908796  0.5588580  0.5000000    0.00000       Uiso       1.00
       H22          H  0.5909785  0.5051558  0.5000000    0.00000       Uiso       1.00
       H23          H  0.6683334  0.4806612  0.5000000    0.00000       Uiso       1.00
       H24          H  0.7187132  0.4812959  0.5000000    0.00000       Uiso       1.00
       H25          H  0.6665908  0.3738933  0.5000000    0.00000       Uiso       1.00
       C51          C  0.4549000  0.0188000  0.5000000    0.00000       Uiso       1.00
       C52          C  0.4904000  0.0365000  0.5000000    0.00000       Uiso       1.00
       C53          C  0.5082000  0.0721000  0.5000000    0.00000       Uiso       1.00
       C54          C  0.5735000  0.1802000  0.5000000    0.00000       Uiso       1.00
       C55          C  0.5735999  0.2109000  0.5000000    0.00000       Uiso       1.00
       C56          C  0.5427999  0.2110000  0.5000000    0.00000       Uiso       1.00
       C57          C  0.5427999  0.2394000  0.5000000    0.00000       Uiso       1.00
       C58          C  0.5737000  0.2703000  0.5000000    0.00000       Uiso       1.00
       C59          C  0.6045000  0.2703000  0.5000000    0.00000       Uiso       1.00
       C60          C  0.6044999  0.2418000  0.5000000    0.00000       Uiso       1.00
        O6          O  0.5451000  0.1438000  0.5000000    0.00000       Uiso       1.00
       H26          H  0.4411419  0.0320216  0.5000000    0.00000       Uiso       1.00
       H27          H  0.4948442  0.0858227  0.5000000    0.00000       Uiso       1.00
       H28          H  0.5193387  0.1876722  0.5000000    0.00000       Uiso       1.00
       H29          H  0.5187041  0.2374174  0.5000000    0.00000       Uiso       1.00
       H30          H  0.6261067  0.2926976  0.5000000    0.00000       Uiso       1.00
       C61          C  0.5639000  0.0188000  0.5000000    0.00000       Uiso       1.00
       C62          C  0.5461000  0.0365000  0.5000000    0.00000       Uiso       1.00
       C63          C  0.5638999  0.0721000  0.5000000    0.00000       Uiso       1.00
       C64          C  0.6067000  0.1802000  0.5000000    0.00000       Uiso       1.00
       C65          C  0.6373000  0.2109000  0.5000000    0.00000       Uiso       1.00
       C66          C  0.6682000  0.2110000  0.5000000    0.00000       Uiso       1.00
       C67          C  0.6966000  0.2394000  0.5000000    0.00000       Uiso       1.00
       C68          C  0.6966000  0.2703000  0.5000000    0.00000       Uiso       1.00
       C69          C  0.6657999  0.2703000  0.5000000    0.00000       Uiso       1.00
       C70          C  0.6373000  0.2418000  0.5000000    0.00000       Uiso       1.00
        O7          O  0.5986999  0.1438000  0.5000000    0.00000       Uiso       1.00
       H31          H  0.5908796  0.0320216  0.5000000    0.00000       Uiso       1.00
       H32          H  0.5909785  0.0858227  0.5000000    0.00000       Uiso       1.00
       H33          H  0.6683335  0.1876722  0.5000000    0.00000       Uiso       1.00
       H34          H  0.7187132  0.2374174  0.5000000    0.00000       Uiso       1.00
       H35          H  0.6665909  0.2926976  0.5000000    0.00000       Uiso       1.00
       C71          C  0.4549000  0.4361000  0.5000000    0.00000       Uiso       1.00
       C72          C  0.4904000  0.4538999  0.5000000    0.00000       Uiso       1.00
       C73          C  0.5082000  0.4361000  0.5000000    0.00000       Uiso       1.00
       C74          C  0.5735000  0.3933000  0.5000000    0.00000       Uiso       1.00
       C75          C  0.5735999  0.3627000  0.5000000    0.00000       Uiso       1.00
       C76          C  0.5427999  0.3318000  0.5000000    0.00000       Uiso       1.00
       C77          C  0.5427999  0.3034000  0.5000000    0.00000       Uiso       1.00
       C78          C  0.5737000  0.3034000  0.5000000    0.00000       Uiso       1.00
       C79          C  0.6045000  0.3342000  0.5000000    0.00000       Uiso       1.00
       C80          C  0.6045000  0.3627000  0.5000000    0.00000       Uiso       1.00
        O8          O  0.5451000  0.4013000  0.5000000    0.00000       Uiso       1.00
       H36          H  0.4411419  0.4091204  0.5000000    0.00000       Uiso       1.00
       H37          H  0.4948442  0.4090214  0.5000000    0.00000       Uiso       1.00
       H38          H  0.5193387  0.3316665  0.5000000    0.00000       Uiso       1.00
       H39          H  0.5187041  0.2812867  0.5000000    0.00000       Uiso       1.00
       H40          H  0.6261067  0.3334091  0.5000000    0.00000       Uiso       1.00
       C81          C  0.9811999  0.5451000  0.5000000    0.00000       Uiso       1.00
       C82          C  0.9635000  0.5096000  0.5000000    0.00000       Uiso       1.00
       C83          C  0.9279000  0.4918000  0.5000000    0.00000       Uiso       1.00
       C84          C  0.8198000  0.4265000  0.5000000    0.00000       Uiso       1.00
       C85          C  0.7890999  0.4264000  0.5000000    0.00000       Uiso       1.00
       C86          C  0.7890000  0.4572000  0.5000000    0.00000       Uiso       1.00
       C87          C  0.7606000  0.4572000  0.5000000    0.00000       Uiso       1.00
       C88          C  0.7297000  0.4263000  0.5000000    0.00000       Uiso       1.00
       C89          C  0.7297000  0.3955000  0.5000000    0.00000       Uiso       1.00
       C90          C  0.7582000  0.3955000  0.5000000    0.00000       Uiso       1.00
        O9          O  0.8562000  0.4549000  0.5000000    0.00000       Uiso       1.00
       H41          H  0.9679784  0.5588580  0.5000000    0.00000       Uiso       1.00
       H42          H  0.9141772  0.5051558  0.5000000    0.00000       Uiso       1.00
       H43          H  0.8123277  0.4806612  0.5000000    0.00000       Uiso       1.00
       H44          H  0.7625826  0.4812959  0.5000000    0.00000       Uiso       1.00
       H45          H  0.7073024  0.3738933  0.5000000    0.00000       Uiso       1.00
       C91          C  0.4361000  0.9811999  0.5000000    0.00000       Uiso       1.00
       C92          C  0.4539000  0.9635000  0.5000000    0.00000       Uiso       1.00
       C93          C  0.4361000  0.9279000  0.5000000    0.00000       Uiso       1.00
       C94          C  0.3933000  0.8198000  0.5000000    0.00000       Uiso       1.00
       C95          C  0.3627000  0.7891000  0.5000000    0.00000       Uiso       1.00
       C96          C  0.3318000  0.7890000  0.5000000    0.00000       Uiso       1.00
       C97          C  0.3034000  0.7606000  0.5000000    0.00000       Uiso       1.00
       C98          C  0.3034000  0.7297000  0.5000000    0.00000       Uiso       1.00
       C99          C  0.3342000  0.7297000  0.5000000    0.00000       Uiso       1.00
      C100          C  0.3627000  0.7582000  0.5000000    0.00000       Uiso       1.00
       O10          O  0.4013000  0.8562000  0.5000000    0.00000       Uiso       1.00
       H46          H  0.4091204  0.9679784  0.5000000    0.00000       Uiso       1.00
       H47          H  0.4090214  0.9141772  0.5000000    0.00000       Uiso       1.00
       H48          H  0.3316665  0.8123277  0.5000000    0.00000       Uiso       1.00
       H49          H  0.2812867  0.7625826  0.5000000    0.00000       Uiso       1.00
       H50          H  0.3334091  0.7073024  0.5000000    0.00000       Uiso       1.00
      C101          C  0.5451000  0.5639000  0.5000000    0.00000       Uiso       1.00
      C102          C  0.5096000  0.5461000  0.5000000    0.00000       Uiso       1.00
      C103          C  0.4918000  0.5639000  0.5000000    0.00000       Uiso       1.00
      C104          C  0.4265000  0.6067000  0.5000000    0.00000       Uiso       1.00
      C105          C  0.4264000  0.6373000  0.5000000    0.00000       Uiso       1.00
      C106          C  0.4572000  0.6682000  0.5000000    0.00000       Uiso       1.00
      C107          C  0.4572000  0.6966000  0.5000000    0.00000       Uiso       1.00
      C108          C  0.4263000  0.6966000  0.5000000    0.00000       Uiso       1.00
      C109          C  0.3954999  0.6657999  0.5000000    0.00000       Uiso       1.00
      C110          C  0.3955000  0.6373000  0.5000000    0.00000       Uiso       1.00
       O11          O  0.4549000  0.5987000  0.5000000    0.00000       Uiso       1.00
       H51          H  0.5588580  0.5908796  0.5000000    0.00000       Uiso       1.00
       H52          H  0.5051558  0.5909786  0.5000000    0.00000       Uiso       1.00
       H53          H  0.4806612  0.6683335  0.5000000    0.00000       Uiso       1.00
       H54          H  0.4812959  0.7187132  0.5000000    0.00000       Uiso       1.00
       H55          H  0.3738933  0.6665909  0.5000000    0.00000       Uiso       1.00
      C111          C  0.0188000  0.4549000  0.5000000    0.00000       Uiso       1.00
      C112          C  0.0365000  0.4904000  0.5000000    0.00000       Uiso       1.00
      C113          C  0.0721000  0.5082000  0.5000000    0.00000       Uiso       1.00
      C114          C  0.1802000  0.5735000  0.5000000    0.00000       Uiso       1.00
      C115          C  0.2109000  0.5735999  0.5000000    0.00000       Uiso       1.00
      C116          C  0.2110000  0.5427999  0.5000000    0.00000       Uiso       1.00
      C117          C  0.2394000  0.5427999  0.5000000    0.00000       Uiso       1.00
      C118          C  0.2703000  0.5737000  0.5000000    0.00000       Uiso       1.00
      C119          C  0.2703000  0.6045000  0.5000000    0.00000       Uiso       1.00
      C120          C  0.2418000  0.6044999  0.5000000    0.00000       Uiso       1.00
       O12          O  0.1438000  0.5451000  0.5000000    0.00000       Uiso       1.00
       H56          H  0.0320216  0.4411419  0.5000000    0.00000       Uiso       1.00
       H57          H  0.0858227  0.4948442  0.5000000    0.00000       Uiso       1.00
       H58          H  0.1876722  0.5193387  0.5000000    0.00000       Uiso       1.00
       H59          H  0.2374173  0.5187041  0.5000000    0.00000       Uiso       1.00
       H60          H  0.2926976  0.6261067  0.5000000    0.00000       Uiso       1.00
      C121          C  0.0165000  0.5082499  0.5000000    0.00000       Uiso       1.00
      C122          C  0.0876000  0.5438000  0.5000000    0.00000       Uiso       1.00
        B1          B  0.1213000  0.5606500  0.5000000    0.00000       Uiso       1.00
      C123          C  0.4917500  0.5082499  0.5000000    0.00000       Uiso       1.00
      C124          C  0.4562000  0.5438000  0.5000000    0.00000       Uiso       1.00
        B2          B  0.4393500  0.5606500  0.5000000    0.00000       Uiso       1.00
      C125          C  0.4917500  0.9835000  0.5000000    0.00000       Uiso       1.00
      C126          C  0.4562000  0.9123999  0.5000000    0.00000       Uiso       1.00
        B3          B  0.4393500  0.8787000  0.5000000    0.00000       Uiso       1.00
      C127          C  0.9835000  0.4917500  0.5000000    0.00000       Uiso       1.00
      C128          C  0.9123999  0.4562000  0.5000000    0.00000       Uiso       1.00
        B4          B  0.8787000  0.4393500  0.5000000    0.00000       Uiso       1.00
      C129          C  0.5082500  0.4917500  0.5000000    0.00000       Uiso       1.00
      C130          C  0.5438000  0.4562000  0.5000000    0.00000       Uiso       1.00
        B5          B  0.5606500  0.4393500  0.5000000    0.00000       Uiso       1.00
      C131          C  0.5082500  0.0165000  0.5000000    0.00000       Uiso       1.00
      C132          C  0.5438000  0.0876000  0.5000000    0.00000       Uiso       1.00
        B6          B  0.5606500  0.1213000  0.5000000    0.00000       Uiso       1.00
