data_crystal

_cell_length_a    32.59000
_cell_length_b    32.59000
_cell_length_c    32.59000
_cell_angle_alpha 90.00000
_cell_angle_beta  90.00000
_cell_angle_gamma 90.00000

_space_group_name_Hall 'P 1'
_space_group_name_H-M_alt  'P 1'

loop_
_symmetry_equiv_pos_as_xyz
 'x,y,z'

loop_
_atom_site_label
_atom_site_type_symbol
_atom_site_fract_x
_atom_site_fract_y
_atom_site_fract_z
C          C       0.24455   0.69810   0.86489
C          C       0.75545   0.30190   0.86489
C          C       0.75545   0.69810   0.13511
C          C       0.24455   0.30190   0.13511
C          C       0.86489   0.24455   0.69810
C          C       0.86489   0.75545   0.30190
C          C       0.13511   0.75545   0.69810
C          C       0.13511   0.24455   0.30190
C          C       0.69810   0.86489   0.24455
C          C       0.30190   0.86489   0.75545
C          C       0.69810   0.13511   0.75545
C          C       0.30190   0.13511   0.24455
C          C       0.74455   0.19810   0.36489
C          C       0.25545   0.80190   0.36489
C          C       0.25545   0.19810   0.63511
C          C       0.74455   0.80190   0.63511
C          C       0.36489   0.74455   0.19810
C          C       0.36489   0.25545   0.80190
C          C       0.63511   0.25545   0.19810
C          C       0.63511   0.74455   0.80190
C          C       0.19810   0.36489   0.74455
C          C       0.80190   0.36489   0.25545
C          C       0.19810   0.63511   0.25545
C          C       0.80190   0.63511   0.74455
C          C       0.24399   0.71130   0.82375
C          C       0.75601   0.28870   0.82375
C          C       0.75601   0.71130   0.17625
C          C       0.24399   0.28870   0.17625
C          C       0.82375   0.24399   0.71130
C          C       0.82375   0.75601   0.28870
C          C       0.17625   0.75601   0.71130
C          C       0.17625   0.24399   0.28870
C          C       0.71130   0.82375   0.24399
C          C       0.28870   0.82375   0.75601
C          C       0.71130   0.17625   0.75601
C          C       0.28870   0.17625   0.24399
C          C       0.74399   0.21130   0.32375
C          C       0.25601   0.78870   0.32375
C          C       0.25601   0.21130   0.67625
C          C       0.74399   0.78870   0.67625
C          C       0.32375   0.74399   0.21130
C          C       0.32375   0.25601   0.78870
C          C       0.67625   0.25601   0.21130
C          C       0.67625   0.74399   0.78870
C          C       0.21130   0.32375   0.74399
C          C       0.78870   0.32375   0.25601
C          C       0.21130   0.67625   0.25601
C          C       0.78870   0.67625   0.74399
C          C       0.24621   0.65568   0.87297
C          C       0.75379   0.34432   0.87297
C          C       0.75379   0.65568   0.12703
C          C       0.24621   0.34432   0.12703
C          C       0.87297   0.24621   0.65568
C          C       0.87297   0.75379   0.34432
C          C       0.12703   0.75379   0.65568
C          C       0.12703   0.24621   0.34432
C          C       0.65568   0.87297   0.24621
C          C       0.34432   0.87297   0.75379
C          C       0.65568   0.12703   0.75379
C          C       0.34432   0.12703   0.24621
C          C       0.74621   0.15568   0.37297
C          C       0.25379   0.84432   0.37297
C          C       0.25379   0.15568   0.62703
C          C       0.74621   0.84432   0.62703
C          C       0.37297   0.74621   0.15568
C          C       0.37297   0.25379   0.84432
C          C       0.62703   0.25379   0.15568
C          C       0.62703   0.74621   0.84432
C          C       0.15568   0.37297   0.74621
C          C       0.84432   0.37297   0.25379
C          C       0.15568   0.62703   0.25379
C          C       0.84432   0.62703   0.74621
N          N       0.37896   0.73001   0.76533
N          N       0.62104   0.26999   0.76533
N          N       0.62104   0.73001   0.23467
N          N       0.37896   0.26999   0.23467
N          N       0.76533   0.37896   0.73001
N          N       0.76533   0.62104   0.26999
N          N       0.23467   0.62104   0.73001
N          N       0.23467   0.37896   0.26999
N          N       0.73001   0.76533   0.37896
N          N       0.26999   0.76533   0.62104
N          N       0.73001   0.23467   0.62104
N          N       0.26999   0.23467   0.37896
N          N       0.87896   0.23001   0.26533
N          N       0.12104   0.76999   0.26533
N          N       0.12104   0.23001   0.73467
N          N       0.87896   0.76999   0.73467
N          N       0.26533   0.87896   0.23001
N          N       0.26533   0.12104   0.76999
N          N       0.73467   0.12104   0.23001
N          N       0.73467   0.87896   0.76999
N          N       0.23001   0.26533   0.87896
N          N       0.76999   0.26533   0.12104
N          N       0.23001   0.73467   0.12104
N          N       0.76999   0.73467   0.87896
C          C       0.24976   0.61053   0.76534
C          C       0.75024   0.38947   0.76534
C          C       0.75024   0.61053   0.23466
C          C       0.24976   0.38947   0.23466
C          C       0.76534   0.24976   0.61053
C          C       0.76534   0.75024   0.38947
C          C       0.23466   0.75024   0.61053
C          C       0.23466   0.24976   0.38947
C          C       0.61053   0.76534   0.24976
C          C       0.38947   0.76534   0.75024
C          C       0.61053   0.23466   0.75024
C          C       0.38947   0.23466   0.24976
C          C       0.74976   0.11053   0.26534
C          C       0.25024   0.88947   0.26534
C          C       0.25024   0.11053   0.73466
C          C       0.74976   0.88947   0.73466
C          C       0.26534   0.74976   0.11053
C          C       0.26534   0.25024   0.88947
C          C       0.73466   0.25024   0.11053
C          C       0.73466   0.74976   0.88947
C          C       0.11053   0.26534   0.74976
C          C       0.88947   0.26534   0.25024
C          C       0.11053   0.73466   0.25024
C          C       0.88947   0.73466   0.74976
C          C       0.24447   0.68250   0.79173
C          C       0.75553   0.31750   0.79173
C          C       0.75553   0.68250   0.20827
C          C       0.24447   0.31750   0.20827
C          C       0.79173   0.24447   0.68250
C          C       0.79173   0.75553   0.31750
C          C       0.20827   0.75553   0.68250
C          C       0.20827   0.24447   0.31750
C          C       0.68250   0.79173   0.24447
C          C       0.31750   0.79173   0.75553
C          C       0.68250   0.20827   0.75553
C          C       0.31750   0.20827   0.24447
C          C       0.74447   0.18250   0.29173
C          C       0.25553   0.81750   0.29173
C          C       0.25553   0.18250   0.70827
C          C       0.74447   0.81750   0.70827
C          C       0.29173   0.74447   0.18250
C          C       0.29173   0.25553   0.81750
C          C       0.70827   0.25553   0.18250
C          C       0.70827   0.74447   0.81750
C          C       0.18250   0.29173   0.74447
C          C       0.81750   0.29173   0.25553
C          C       0.18250   0.70827   0.25553
C          C       0.81750   0.70827   0.74447
N          N       0.10674   0.74573   0.76559
N          N       0.89326   0.25427   0.76559
N          N       0.89326   0.74573   0.23441
N          N       0.10674   0.25427   0.23441
N          N       0.76559   0.10674   0.74573
N          N       0.76559   0.89326   0.25427
N          N       0.23441   0.89326   0.74573
N          N       0.23441   0.10674   0.25427
N          N       0.74573   0.76559   0.10674
N          N       0.25427   0.76559   0.89326
N          N       0.74573   0.23441   0.89326
N          N       0.25427   0.23441   0.10674
N          N       0.60674   0.24573   0.26559
N          N       0.39326   0.75427   0.26559
N          N       0.39326   0.24573   0.73441
N          N       0.60674   0.75427   0.73441
N          N       0.26559   0.60674   0.24573
N          N       0.26559   0.39326   0.75427
N          N       0.73441   0.39326   0.24573
N          N       0.73441   0.60674   0.75427
N          N       0.24573   0.26559   0.60674
N          N       0.75427   0.26559   0.39326
N          N       0.24573   0.73441   0.39326
N          N       0.75427   0.73441   0.60674
C          C       0.27226   0.89930   0.75664
C          C       0.72774   0.10070   0.75664
C          C       0.72774   0.89930   0.24336
C          C       0.27226   0.10070   0.24336
C          C       0.75664   0.27226   0.89930
C          C       0.75664   0.72774   0.10070
C          C       0.24336   0.72774   0.89930
C          C       0.24336   0.27226   0.10070
C          C       0.89930   0.75664   0.27226
C          C       0.10070   0.75664   0.72774
C          C       0.89930   0.24336   0.72774
C          C       0.10070   0.24336   0.27226
C          C       0.77226   0.39930   0.25664
C          C       0.22774   0.60070   0.25664
C          C       0.22774   0.39930   0.74336
C          C       0.77226   0.60070   0.74336
C          C       0.25664   0.77226   0.39930
C          C       0.25664   0.22774   0.60070
C          C       0.74336   0.22774   0.39930
C          C       0.74336   0.77226   0.60070
C          C       0.39930   0.25664   0.77226
C          C       0.60070   0.25664   0.22774
C          C       0.39930   0.74336   0.22774
C          C       0.60070   0.74336   0.77226
C          C       0.24807   0.62704   0.84074
C          C       0.75193   0.37296   0.84074
C          C       0.75193   0.62704   0.15926
C          C       0.24807   0.37296   0.15926
C          C       0.84074   0.24807   0.62704
C          C       0.84074   0.75193   0.37296
C          C       0.15926   0.75193   0.62704
C          C       0.15926   0.24807   0.37296
C          C       0.62704   0.84074   0.24807
C          C       0.37296   0.84074   0.75193
C          C       0.62704   0.15926   0.75193
C          C       0.37296   0.15926   0.24807
C          C       0.74807   0.12704   0.34074
C          C       0.25193   0.87296   0.34074
C          C       0.25193   0.12704   0.65926
C          C       0.74807   0.87296   0.65926
C          C       0.34074   0.74807   0.12704
C          C       0.34074   0.25193   0.87296
C          C       0.65926   0.25193   0.12704
C          C       0.65926   0.74807   0.87296
C          C       0.12704   0.34074   0.74807
C          C       0.87296   0.34074   0.25193
C          C       0.12704   0.65926   0.25193
C          C       0.87296   0.65926   0.74807
O          O       0.24311   0.74923   0.81374
O          O       0.75689   0.25077   0.81374
O          O       0.75689   0.74923   0.18626
O          O       0.24311   0.25077   0.18626
O          O       0.81374   0.24311   0.74923
O          O       0.81374   0.75689   0.25077
O          O       0.18626   0.75689   0.74923
O          O       0.18626   0.24311   0.25077
O          O       0.74923   0.81374   0.24311
O          O       0.25077   0.81374   0.75689
O          O       0.74923   0.18626   0.75689
O          O       0.25077   0.18626   0.24311
O          O       0.74311   0.24923   0.31374
O          O       0.25689   0.75077   0.31374
O          O       0.25689   0.24923   0.68626
O          O       0.74311   0.75077   0.68626
O          O       0.31374   0.74311   0.24923
O          O       0.31374   0.25689   0.75077
O          O       0.68626   0.25689   0.24923
O          O       0.68626   0.74311   0.75077
O          O       0.24923   0.31374   0.74311
O          O       0.75077   0.31374   0.25689
O          O       0.24923   0.68626   0.25689
O          O       0.75077   0.68626   0.74311
C          C       0.24672   0.64015   0.79974
C          C       0.75328   0.35985   0.79974
C          C       0.75328   0.64015   0.20026
C          C       0.24672   0.35985   0.20026
C          C       0.79974   0.24672   0.64015
C          C       0.79974   0.75328   0.35985
C          C       0.20026   0.75328   0.64015
C          C       0.20026   0.24672   0.35985
C          C       0.64015   0.79974   0.24672
C          C       0.35985   0.79974   0.75328
C          C       0.64015   0.20026   0.75328
C          C       0.35985   0.20026   0.24672
C          C       0.74672   0.14015   0.29974
C          C       0.25328   0.85985   0.29974
C          C       0.25328   0.14015   0.70026
C          C       0.74672   0.85985   0.70026
C          C       0.29974   0.74672   0.14015
C          C       0.29974   0.25328   0.85985
C          C       0.70026   0.25328   0.14015
C          C       0.70026   0.74672   0.85985
C          C       0.14015   0.29974   0.74672
C          C       0.85985   0.29974   0.25328
C          C       0.14015   0.70026   0.25328
C          C       0.85985   0.70026   0.74672
O          O       0.30367   0.75525   0.75640
O          O       0.69633   0.24475   0.75640
O          O       0.69633   0.75525   0.24360
O          O       0.30367   0.24475   0.24360
O          O       0.75640   0.30367   0.75525
O          O       0.75640   0.69633   0.24475
O          O       0.24360   0.69633   0.75525
O          O       0.24360   0.30367   0.24475
O          O       0.75525   0.75640   0.30367
O          O       0.24475   0.75640   0.69633
O          O       0.75525   0.24360   0.69633
O          O       0.24475   0.24360   0.30367
O          O       0.80367   0.25525   0.25640
O          O       0.19633   0.74475   0.25640
O          O       0.19633   0.25525   0.74360
O          O       0.80367   0.74475   0.74360
O          O       0.25640   0.80367   0.25525
O          O       0.25640   0.19633   0.74475
O          O       0.74360   0.19633   0.25525
O          O       0.74360   0.80367   0.74475
O          O       0.25525   0.25640   0.80367
O          O       0.74475   0.25640   0.19633
O          O       0.25525   0.74360   0.19633
O          O       0.74475   0.74360   0.80367
C          C       0.39839   0.69091   0.76094
C          C       0.60161   0.30909   0.76094
C          C       0.60161   0.69091   0.23906
C          C       0.39839   0.30909   0.23906
C          C       0.76094   0.39839   0.69091
C          C       0.76094   0.60161   0.30909
C          C       0.23906   0.60161   0.69091
C          C       0.23906   0.39839   0.30909
C          C       0.69091   0.76094   0.39839
C          C       0.30909   0.76094   0.60161
C          C       0.69091   0.23906   0.60161
C          C       0.30909   0.23906   0.39839
C          C       0.89839   0.19091   0.26094
C          C       0.10161   0.80909   0.26094
C          C       0.10161   0.19091   0.73906
C          C       0.89839   0.80909   0.73906
C          C       0.26094   0.89839   0.19091
C          C       0.26094   0.10161   0.80909
C          C       0.73906   0.10161   0.19091
C          C       0.73906   0.89839   0.80909
C          C       0.19091   0.26094   0.89839
C          C       0.80909   0.26094   0.10161
C          C       0.19091   0.73906   0.10161
C          C       0.80909   0.73906   0.89839
C          C       0.42390   0.68118   0.72754
C          C       0.57610   0.31882   0.72754
C          C       0.57610   0.68118   0.27246
C          C       0.42390   0.31882   0.27246
C          C       0.72754   0.42390   0.68118
C          C       0.72754   0.57610   0.31882
C          C       0.27246   0.57610   0.68118
C          C       0.27246   0.42390   0.31882
C          C       0.68118   0.72754   0.42390
C          C       0.31882   0.72754   0.57610
C          C       0.68118   0.27246   0.57610
C          C       0.31882   0.27246   0.42390
C          C       0.92390   0.18118   0.22754
C          C       0.07610   0.81882   0.22754
C          C       0.07610   0.18118   0.77246
C          C       0.92390   0.81882   0.77246
C          C       0.22754   0.92390   0.18118
C          C       0.22754   0.07610   0.81882
C          C       0.77246   0.07610   0.18118
C          C       0.77246   0.92390   0.81882
C          C       0.18118   0.22754   0.92390
C          C       0.81882   0.22754   0.07610
C          C       0.18118   0.77246   0.07610
C          C       0.81882   0.77246   0.92390
C          C       0.43609   0.64039   0.72086
C          C       0.56391   0.35961   0.72086
C          C       0.56391   0.64039   0.27914
C          C       0.43609   0.35961   0.27914
C          C       0.72086   0.43609   0.64039
C          C       0.72086   0.56391   0.35961
C          C       0.27914   0.56391   0.64039
C          C       0.27914   0.43609   0.35961
C          C       0.64039   0.72086   0.43609
C          C       0.35961   0.72086   0.56391
C          C       0.64039   0.27914   0.56391
C          C       0.35961   0.27914   0.43609
C          C       0.93609   0.14039   0.22086
C          C       0.06391   0.85961   0.22086
C          C       0.06391   0.14039   0.77914
C          C       0.93609   0.85961   0.77914
C          C       0.22086   0.93609   0.14039
C          C       0.22086   0.06391   0.85961
C          C       0.77914   0.06391   0.14039
C          C       0.77914   0.93609   0.85961
C          C       0.14039   0.22086   0.93609
C          C       0.85961   0.22086   0.06391
C          C       0.14039   0.77914   0.06391
C          C       0.85961   0.77914   0.93609
C          C       0.42322   0.60890   0.74767
C          C       0.57678   0.39110   0.74767
C          C       0.57678   0.60890   0.25233
C          C       0.42322   0.39110   0.25233
C          C       0.74767   0.42322   0.60890
C          C       0.74767   0.57678   0.39110
C          C       0.25233   0.57678   0.60890
C          C       0.25233   0.42322   0.39110
C          C       0.60890   0.74767   0.42322
C          C       0.39110   0.74767   0.57678
C          C       0.60890   0.25233   0.57678
C          C       0.39110   0.25233   0.42322
C          C       0.92322   0.10890   0.24767
C          C       0.07678   0.89110   0.24767
C          C       0.07678   0.10890   0.75233
C          C       0.92322   0.89110   0.75233
C          C       0.24767   0.92322   0.10890
C          C       0.24767   0.07678   0.89110
C          C       0.75233   0.07678   0.10890
C          C       0.75233   0.92322   0.89110
C          C       0.10890   0.24767   0.92322
C          C       0.89110   0.24767   0.07678
C          C       0.10890   0.75233   0.07678
C          C       0.89110   0.75233   0.92322
C          C       0.39771   0.61937   0.78095
C          C       0.60229   0.38063   0.78095
C          C       0.60229   0.61937   0.21905
C          C       0.39771   0.38063   0.21905
C          C       0.78095   0.39771   0.61937
C          C       0.78095   0.60229   0.38063
C          C       0.21905   0.60229   0.61937
C          C       0.21905   0.39771   0.38063
C          C       0.61937   0.78095   0.39771
C          C       0.38063   0.78095   0.60229
C          C       0.61937   0.21905   0.60229
C          C       0.38063   0.21905   0.39771
C          C       0.89771   0.11937   0.28095
C          C       0.10229   0.88063   0.28095
C          C       0.10229   0.11937   0.71905
C          C       0.89771   0.88063   0.71905
C          C       0.28095   0.89771   0.11937
C          C       0.28095   0.10229   0.88063
C          C       0.71905   0.10229   0.11937
C          C       0.71905   0.89771   0.88063
C          C       0.11937   0.28095   0.89771
C          C       0.88063   0.28095   0.10229
C          C       0.11937   0.71905   0.10229
C          C       0.88063   0.71905   0.89771
C          C       0.38562   0.65978   0.78741
C          C       0.61438   0.34022   0.78741
C          C       0.61438   0.65978   0.21259
C          C       0.38562   0.34022   0.21259
C          C       0.78741   0.38562   0.65978
C          C       0.78741   0.61438   0.34022
C          C       0.21259   0.61438   0.65978
C          C       0.21259   0.38562   0.34022
C          C       0.65978   0.78741   0.38562
C          C       0.34022   0.78741   0.61438
C          C       0.65978   0.21259   0.61438
C          C       0.34022   0.21259   0.38562
C          C       0.88562   0.15978   0.28741
C          C       0.11438   0.84022   0.28741
C          C       0.11438   0.15978   0.71259
C          C       0.88562   0.84022   0.71259
C          C       0.28741   0.88562   0.15978
C          C       0.28741   0.11438   0.84022
C          C       0.71259   0.11438   0.15978
C          C       0.71259   0.88562   0.84022
C          C       0.15978   0.28741   0.88562
C          C       0.84022   0.28741   0.11438
C          C       0.15978   0.71259   0.11438
C          C       0.84022   0.71259   0.88562
C          C       0.43239   0.56702   0.74060
C          C       0.56761   0.43298   0.74060
C          C       0.56761   0.56702   0.25940
C          C       0.43239   0.43298   0.25940
C          C       0.74060   0.43239   0.56702
C          C       0.74060   0.56761   0.43298
C          C       0.25940   0.56761   0.56702
C          C       0.25940   0.43239   0.43298
C          C       0.56702   0.74060   0.43239
C          C       0.43298   0.74060   0.56761
C          C       0.56702   0.25940   0.56761
C          C       0.43298   0.25940   0.43239
C          C       0.93239   0.06702   0.24060
C          C       0.06761   0.93298   0.24060
C          C       0.06761   0.06702   0.75940
C          C       0.93239   0.93298   0.75940
C          C       0.24060   0.93239   0.06702
C          C       0.24060   0.06761   0.93298
C          C       0.75940   0.06761   0.06702
C          C       0.75940   0.93239   0.93298
C          C       0.06702   0.24060   0.93239
C          C       0.93298   0.24060   0.06761
C          C       0.06702   0.75940   0.06761
C          C       0.93298   0.75940   0.93239
C          C       0.39936   0.53937   0.74097
C          C       0.60064   0.46063   0.74097
C          C       0.60064   0.53937   0.25903
C          C       0.39936   0.46063   0.25903
C          C       0.74097   0.39936   0.53937
C          C       0.74097   0.60064   0.46063
C          C       0.25903   0.60064   0.53937
C          C       0.25903   0.39936   0.46063
C          C       0.53937   0.74097   0.39936
C          C       0.46063   0.74097   0.60064
C          C       0.53937   0.25903   0.60064
C          C       0.46063   0.25903   0.39936
C          C       0.89936   0.03937   0.24097
C          C       0.10064   0.96063   0.24097
C          C       0.10064   0.03937   0.75903
C          C       0.89936   0.96063   0.75903
C          C       0.24097   0.89936   0.03937
C          C       0.24097   0.10064   0.96063
C          C       0.75903   0.10064   0.03937
C          C       0.75903   0.89936   0.96063
C          C       0.03937   0.24097   0.89936
C          C       0.96063   0.24097   0.10064
C          C       0.03937   0.75903   0.10064
C          C       0.96063   0.75903   0.89936
C          C       0.40483   0.49674   0.74048
C          C       0.59517   0.50326   0.74048
C          C       0.59517   0.49674   0.25952
C          C       0.40483   0.50326   0.25952
C          C       0.74048   0.40483   0.49674
C          C       0.74048   0.59517   0.50326
C          C       0.25952   0.59517   0.49674
C          C       0.25952   0.40483   0.50326
C          C       0.49674   0.74048   0.40483
C          C       0.50326   0.74048   0.59517
C          C       0.49674   0.25952   0.59517
C          C       0.50326   0.25952   0.40483
C          C       0.90483   0.99674   0.24048
C          C       0.09517   0.00326   0.24048
C          C       0.09517   0.99674   0.75952
C          C       0.90483   0.00326   0.75952
C          C       0.24048   0.90483   0.99674
C          C       0.24048   0.09517   0.00326
C          C       0.75952   0.09517   0.99674
C          C       0.75952   0.90483   0.00326
C          C       0.99674   0.24048   0.90483
C          C       0.00326   0.24048   0.09517
C          C       0.99674   0.75952   0.09517
C          C       0.00326   0.75952   0.90483
C          C       0.44548   0.48082   0.73826
C          C       0.55452   0.51918   0.73826
C          C       0.55452   0.48082   0.26174
C          C       0.44548   0.51918   0.26174
C          C       0.73826   0.44548   0.48082
C          C       0.73826   0.55452   0.51918
C          C       0.26174   0.55452   0.48082
C          C       0.26174   0.44548   0.51918
C          C       0.48082   0.73826   0.44548
C          C       0.51918   0.73826   0.55452
C          C       0.48082   0.26174   0.55452
C          C       0.51918   0.26174   0.44548
C          C       0.94548   0.98082   0.23826
C          C       0.05452   0.01918   0.23826
C          C       0.05452   0.98082   0.76174
C          C       0.94548   0.01918   0.76174
C          C       0.23826   0.94548   0.98082
C          C       0.23826   0.05452   0.01918
C          C       0.76174   0.05452   0.98082
C          C       0.76174   0.94548   0.01918
C          C       0.98082   0.23826   0.94548
C          C       0.01918   0.23826   0.05452
C          C       0.98082   0.76174   0.05452
C          C       0.01918   0.76174   0.94548
C          C       0.47957   0.50806   0.73734
C          C       0.52043   0.49194   0.73734
C          C       0.52043   0.50806   0.26266
C          C       0.47957   0.49194   0.26266
C          C       0.73734   0.47957   0.50806
C          C       0.73734   0.52043   0.49194
C          C       0.26266   0.52043   0.50806
C          C       0.26266   0.47957   0.49194
C          C       0.50806   0.73734   0.47957
C          C       0.49194   0.73734   0.52043
C          C       0.50806   0.26266   0.52043
C          C       0.49194   0.26266   0.47957
C          C       0.97957   0.00806   0.23734
C          C       0.02043   0.99194   0.23734
C          C       0.02043   0.00806   0.76266
C          C       0.97957   0.99194   0.76266
C          C       0.23734   0.97957   0.00806
C          C       0.23734   0.02043   0.99194
C          C       0.76266   0.02043   0.00806
C          C       0.76266   0.97957   0.99194
C          C       0.00806   0.23734   0.97957
C          C       0.99194   0.23734   0.02043
C          C       0.00806   0.76266   0.02043
C          C       0.99194   0.76266   0.97957
C          C       0.47303   0.55129   0.73761
C          C       0.52697   0.44871   0.73761
C          C       0.52697   0.55129   0.26239
C          C       0.47303   0.44871   0.26239
C          C       0.73761   0.47303   0.55129
C          C       0.73761   0.52697   0.44871
C          C       0.26239   0.52697   0.55129
C          C       0.26239   0.47303   0.44871
C          C       0.55129   0.73761   0.47303
C          C       0.44871   0.73761   0.52697
C          C       0.55129   0.26239   0.52697
C          C       0.44871   0.26239   0.47303
C          C       0.97303   0.05129   0.23761
C          C       0.02697   0.94871   0.23761
C          C       0.02697   0.05129   0.76239
C          C       0.97303   0.94871   0.76239
C          C       0.23761   0.97303   0.05129
C          C       0.23761   0.02697   0.94871
C          C       0.76239   0.02697   0.05129
C          C       0.76239   0.97303   0.94871
C          C       0.05129   0.23761   0.97303
C          C       0.94871   0.23761   0.02697
C          C       0.05129   0.76239   0.02697
C          C       0.94871   0.76239   0.97303
C          C       0.49252   0.42276   0.73692
C          C       0.50748   0.57724   0.73692
C          C       0.50748   0.42276   0.26308
C          C       0.49252   0.57724   0.26308
C          C       0.73692   0.49252   0.42276
C          C       0.73692   0.50748   0.57724
C          C       0.26308   0.50748   0.42276
C          C       0.26308   0.49252   0.57724
C          C       0.42276   0.73692   0.49252
C          C       0.57724   0.73692   0.50748
C          C       0.42276   0.26308   0.50748
C          C       0.57724   0.26308   0.49252
C          C       0.99252   0.92276   0.23692
C          C       0.00748   0.07724   0.23692
C          C       0.00748   0.92276   0.76308
C          C       0.99252   0.07724   0.76308
C          C       0.23692   0.99252   0.92276
C          C       0.23692   0.00748   0.07724
C          C       0.76308   0.00748   0.92276
C          C       0.76308   0.99252   0.07724
C          C       0.92276   0.23692   0.99252
C          C       0.07724   0.23692   0.00748
C          C       0.92276   0.76308   0.00748
C          C       0.07724   0.76308   0.99252
C          C       0.45303   0.43844   0.73531
C          C       0.54697   0.56156   0.73531
C          C       0.54697   0.43844   0.26469
C          C       0.45303   0.56156   0.26469
C          C       0.73531   0.45303   0.43844
C          C       0.73531   0.54697   0.56156
C          C       0.26469   0.54697   0.43844
C          C       0.26469   0.45303   0.56156
C          C       0.43844   0.73531   0.45303
C          C       0.56156   0.73531   0.54697
C          C       0.43844   0.26469   0.54697
C          C       0.56156   0.26469   0.45303
C          C       0.95303   0.93844   0.23531
C          C       0.04697   0.06156   0.23531
C          C       0.04697   0.93844   0.76469
C          C       0.95303   0.06156   0.76469
C          C       0.23531   0.95303   0.93844
C          C       0.23531   0.04697   0.06156
C          C       0.76469   0.04697   0.93844
C          C       0.76469   0.95303   0.06156
C          C       0.93844   0.23531   0.95303
C          C       0.06156   0.23531   0.04697
C          C       0.93844   0.76469   0.04697
C          C       0.06156   0.76469   0.95303
C          C       0.63060   0.52817   0.74465
C          C       0.36940   0.47183   0.74465
C          C       0.36940   0.52817   0.25535
C          C       0.63060   0.47183   0.25535
C          C       0.74465   0.63060   0.52817
C          C       0.74465   0.36940   0.47183
C          C       0.25535   0.36940   0.52817
C          C       0.25535   0.63060   0.47183
C          C       0.52817   0.74465   0.63060
C          C       0.47183   0.74465   0.36940
C          C       0.52817   0.25535   0.36940
C          C       0.47183   0.25535   0.63060
C          C       0.13060   0.02817   0.24465
C          C       0.86940   0.97183   0.24465
C          C       0.86940   0.02817   0.75535
C          C       0.13060   0.97183   0.75535
C          C       0.24465   0.13060   0.02817
C          C       0.24465   0.86940   0.97183
C          C       0.75535   0.86940   0.02817
C          C       0.75535   0.13060   0.97183
C          C       0.02817   0.24465   0.13060
C          C       0.97183   0.24465   0.86940
C          C       0.02817   0.75535   0.86940
C          C       0.97183   0.75535   0.13060
C          C       0.66606   0.52009   0.72114
C          C       0.33394   0.47991   0.72114
C          C       0.33394   0.52009   0.27886
C          C       0.66606   0.47991   0.27886
C          C       0.72114   0.66606   0.52009
C          C       0.72114   0.33394   0.47991
C          C       0.27886   0.33394   0.52009
C          C       0.27886   0.66606   0.47991
C          C       0.52009   0.72114   0.66606
C          C       0.47991   0.72114   0.33394
C          C       0.52009   0.27886   0.33394
C          C       0.47991   0.27886   0.66606
C          C       0.16606   0.02009   0.22114
C          C       0.83394   0.97991   0.22114
C          C       0.83394   0.02009   0.77886
C          C       0.16606   0.97991   0.77886
C          C       0.22114   0.16606   0.02009
C          C       0.22114   0.83394   0.97991
C          C       0.77886   0.83394   0.02009
C          C       0.77886   0.16606   0.97991
C          C       0.02009   0.22114   0.16606
C          C       0.97991   0.22114   0.83394
C          C       0.02009   0.77886   0.83394
C          C       0.97991   0.77886   0.16606
C          C       0.70100   0.54476   0.72482
C          C       0.29900   0.45524   0.72482
C          C       0.29900   0.54476   0.27518
C          C       0.70100   0.45524   0.27518
C          C       0.72482   0.70100   0.54476
C          C       0.72482   0.29900   0.45524
C          C       0.27518   0.29900   0.54476
C          C       0.27518   0.70100   0.45524
C          C       0.54476   0.72482   0.70100
C          C       0.45524   0.72482   0.29900
C          C       0.54476   0.27518   0.29900
C          C       0.45524   0.27518   0.70100
C          C       0.20100   0.04476   0.22482
C          C       0.79900   0.95524   0.22482
C          C       0.79900   0.04476   0.77518
C          C       0.20100   0.95524   0.77518
C          C       0.22482   0.20100   0.04476
C          C       0.22482   0.79900   0.95524
C          C       0.77518   0.79900   0.04476
C          C       0.77518   0.20100   0.95524
C          C       0.04476   0.22482   0.20100
C          C       0.95524   0.22482   0.79900
C          C       0.04476   0.77518   0.79900
C          C       0.95524   0.77518   0.20100
C          C       0.70134   0.57779   0.75254
C          C       0.29866   0.42221   0.75254
C          C       0.29866   0.57779   0.24746
C          C       0.70134   0.42221   0.24746
C          C       0.75254   0.70134   0.57779
C          C       0.75254   0.29866   0.42221
C          C       0.24746   0.29866   0.57779
C          C       0.24746   0.70134   0.42221
C          C       0.57779   0.75254   0.70134
C          C       0.42221   0.75254   0.29866
C          C       0.57779   0.24746   0.29866
C          C       0.42221   0.24746   0.70134
C          C       0.20134   0.07779   0.25254
C          C       0.79866   0.92221   0.25254
C          C       0.79866   0.07779   0.74746
C          C       0.20134   0.92221   0.74746
C          C       0.25254   0.20134   0.07779
C          C       0.25254   0.79866   0.92221
C          C       0.74746   0.79866   0.07779
C          C       0.74746   0.20134   0.92221
C          C       0.07779   0.25254   0.20134
C          C       0.92221   0.25254   0.79866
C          C       0.07779   0.74746   0.79866
C          C       0.92221   0.74746   0.20134
C          C       0.66680   0.58511   0.77689
C          C       0.33320   0.41489   0.77689
C          C       0.33320   0.58511   0.22311
C          C       0.66680   0.41489   0.22311
C          C       0.77689   0.66680   0.58511
C          C       0.77689   0.33320   0.41489
C          C       0.22311   0.33320   0.58511
C          C       0.22311   0.66680   0.41489
C          C       0.58511   0.77689   0.66680
C          C       0.41489   0.77689   0.33320
C          C       0.58511   0.22311   0.33320
C          C       0.41489   0.22311   0.66680
C          C       0.16680   0.08511   0.27689
C          C       0.83320   0.91489   0.27689
C          C       0.83320   0.08511   0.72311
C          C       0.16680   0.91489   0.72311
C          C       0.27689   0.16680   0.08511
C          C       0.27689   0.83320   0.91489
C          C       0.72311   0.83320   0.08511
C          C       0.72311   0.16680   0.91489
C          C       0.08511   0.27689   0.16680
C          C       0.91489   0.27689   0.83320
C          C       0.08511   0.72311   0.83320
C          C       0.91489   0.72311   0.16680
C          C       0.63212   0.56019   0.77366
C          C       0.36788   0.43981   0.77366
C          C       0.36788   0.56019   0.22634
C          C       0.63212   0.43981   0.22634
C          C       0.77366   0.63212   0.56019
C          C       0.77366   0.36788   0.43981
C          C       0.22634   0.36788   0.56019
C          C       0.22634   0.63212   0.43981
C          C       0.56019   0.77366   0.63212
C          C       0.43981   0.77366   0.36788
C          C       0.56019   0.22634   0.36788
C          C       0.43981   0.22634   0.63212
C          C       0.13212   0.06019   0.27366
C          C       0.86788   0.93981   0.27366
C          C       0.86788   0.06019   0.72634
C          C       0.13212   0.93981   0.72634
C          C       0.27366   0.13212   0.06019
C          C       0.27366   0.86788   0.93981
C          C       0.72634   0.86788   0.06019
C          C       0.72634   0.13212   0.93981
C          C       0.06019   0.27366   0.13212
C          C       0.93981   0.27366   0.86788
C          C       0.06019   0.72634   0.86788
C          C       0.93981   0.72634   0.13212
H          H       0.24683   0.64470   0.90434
H          H       0.75317   0.35530   0.90434
H          H       0.75317   0.64470   0.09566
H          H       0.24683   0.35530   0.09566
H          H       0.90434   0.24683   0.64470
H          H       0.90434   0.75317   0.35530
H          H       0.09566   0.75317   0.64470
H          H       0.09566   0.24683   0.35530
H          H       0.64470   0.90434   0.24683
H          H       0.35530   0.90434   0.75317
H          H       0.64470   0.09566   0.75317
H          H       0.35530   0.09566   0.24683
H          H       0.74683   0.14470   0.40434
H          H       0.25317   0.85530   0.40434
H          H       0.25317   0.14470   0.59566
H          H       0.74683   0.85530   0.59566
H          H       0.40434   0.74683   0.14470
H          H       0.40434   0.25317   0.85530
H          H       0.59566   0.25317   0.14470
H          H       0.59566   0.74683   0.85530
H          H       0.14470   0.40434   0.74683
H          H       0.85530   0.40434   0.25317
H          H       0.14470   0.59566   0.25317
H          H       0.85530   0.59566   0.74683
H          H       0.26572   0.58166   0.76935
H          H       0.73428   0.41834   0.76935
H          H       0.73428   0.58166   0.23065
H          H       0.26572   0.41834   0.23065
H          H       0.76935   0.26572   0.58166
H          H       0.76935   0.73428   0.41834
H          H       0.23065   0.73428   0.58166
H          H       0.23065   0.26572   0.41834
H          H       0.58166   0.76935   0.26572
H          H       0.41834   0.76935   0.73428
H          H       0.58166   0.23065   0.73428
H          H       0.41834   0.23065   0.26572
H          H       0.76572   0.08166   0.26935
H          H       0.23428   0.91834   0.26935
H          H       0.23428   0.08166   0.73065
H          H       0.76572   0.91834   0.73065
H          H       0.26935   0.76572   0.08166
H          H       0.26935   0.23428   0.91834
H          H       0.73065   0.23428   0.08166
H          H       0.73065   0.76572   0.91834
H          H       0.08166   0.26935   0.76572
H          H       0.91834   0.26935   0.23428
H          H       0.08166   0.73065   0.23428
H          H       0.91834   0.73065   0.76572
H          H       0.28270   0.92948   0.76582
H          H       0.71730   0.07052   0.76582
H          H       0.71730   0.92948   0.23418
H          H       0.28270   0.07052   0.23418
H          H       0.76582   0.28270   0.92948
H          H       0.76582   0.71730   0.07052
H          H       0.23418   0.71730   0.92948
H          H       0.23418   0.28270   0.07052
H          H       0.92948   0.76582   0.28270
H          H       0.07052   0.76582   0.71730
H          H       0.92948   0.23418   0.71730
H          H       0.07052   0.23418   0.28270
H          H       0.78270   0.42948   0.26582
H          H       0.21730   0.57052   0.26582
H          H       0.21730   0.42948   0.73418
H          H       0.78270   0.57052   0.73418
H          H       0.26582   0.78270   0.42948
H          H       0.26582   0.21730   0.57052
H          H       0.73418   0.21730   0.42948
H          H       0.73418   0.78270   0.57052
H          H       0.42948   0.26582   0.78270
H          H       0.57052   0.26582   0.21730
H          H       0.42948   0.73418   0.21730
H          H       0.57052   0.73418   0.78270
H          H       0.25017   0.59463   0.84782
H          H       0.74983   0.40537   0.84782
H          H       0.74983   0.59463   0.15218
H          H       0.25017   0.40537   0.15218
H          H       0.84782   0.25017   0.59463
H          H       0.84782   0.74983   0.40537
H          H       0.15218   0.74983   0.59463
H          H       0.15218   0.25017   0.40537
H          H       0.59463   0.84782   0.25017
H          H       0.40537   0.84782   0.74983
H          H       0.59463   0.15218   0.74983
H          H       0.40537   0.15218   0.25017
H          H       0.75017   0.09463   0.34782
H          H       0.24983   0.90537   0.34782
H          H       0.24983   0.09463   0.65218
H          H       0.75017   0.90537   0.65218
H          H       0.34782   0.75017   0.09463
H          H       0.34782   0.24983   0.90537
H          H       0.65218   0.24983   0.09463
H          H       0.65218   0.75017   0.90537
H          H       0.09463   0.34782   0.75017
H          H       0.90537   0.34782   0.24983
H          H       0.09463   0.65218   0.24983
H          H       0.90537   0.65218   0.75017
H          H       0.43246   0.70446   0.70551
H          H       0.56754   0.29554   0.70551
H          H       0.56754   0.70446   0.29449
H          H       0.43246   0.29554   0.29449
H          H       0.70551   0.43246   0.70446
H          H       0.70551   0.56754   0.29554
H          H       0.29449   0.56754   0.70446
H          H       0.29449   0.43246   0.29554
H          H       0.70446   0.70551   0.43246
H          H       0.29554   0.70551   0.56754
H          H       0.70446   0.29449   0.56754
H          H       0.29554   0.29449   0.43246
H          H       0.93246   0.20446   0.20551
H          H       0.06754   0.79554   0.20551
H          H       0.06754   0.20446   0.79449
H          H       0.93246   0.79554   0.79449
H          H       0.20551   0.93246   0.20446
H          H       0.20551   0.06754   0.79554
H          H       0.79449   0.06754   0.20446
H          H       0.79449   0.93246   0.79554
H          H       0.20446   0.20551   0.93246
H          H       0.79554   0.20551   0.06754
H          H       0.20446   0.79449   0.06754
H          H       0.79554   0.79449   0.93246
H          H       0.45386   0.63320   0.69369
H          H       0.54614   0.36680   0.69369
H          H       0.54614   0.63320   0.30631
H          H       0.45386   0.36680   0.30631
H          H       0.69369   0.45386   0.63320
H          H       0.69369   0.54614   0.36680
H          H       0.30631   0.54614   0.63320
H          H       0.30631   0.45386   0.36680
H          H       0.63320   0.69369   0.45386
H          H       0.36680   0.69369   0.54614
H          H       0.63320   0.30631   0.54614
H          H       0.36680   0.30631   0.45386
H          H       0.95386   0.13320   0.19369
H          H       0.04614   0.86680   0.19369
H          H       0.04614   0.13320   0.80631
H          H       0.95386   0.86680   0.80631
H          H       0.19369   0.95386   0.13320
H          H       0.19369   0.04614   0.86680
H          H       0.80631   0.04614   0.13320
H          H       0.80631   0.95386   0.86680
H          H       0.13320   0.19369   0.95386
H          H       0.86680   0.19369   0.04614
H          H       0.13320   0.80631   0.04614
H          H       0.86680   0.80631   0.95386
H          H       0.38697   0.59608   0.80213
H          H       0.61303   0.40392   0.80213
H          H       0.61303   0.59608   0.19787
H          H       0.38697   0.40392   0.19787
H          H       0.80213   0.38697   0.59608
H          H       0.80213   0.61303   0.40392
H          H       0.19787   0.61303   0.59608
H          H       0.19787   0.38697   0.40392
H          H       0.59608   0.80213   0.38697
H          H       0.40392   0.80213   0.61303
H          H       0.59608   0.19787   0.61303
H          H       0.40392   0.19787   0.38697
H          H       0.88697   0.09608   0.30213
H          H       0.11303   0.90392   0.30213
H          H       0.11303   0.09608   0.69787
H          H       0.88697   0.90392   0.69787
H          H       0.30213   0.88697   0.09608
H          H       0.30213   0.11303   0.90392
H          H       0.69787   0.11303   0.09608
H          H       0.69787   0.88697   0.90392
H          H       0.09608   0.30213   0.88697
H          H       0.90392   0.30213   0.11303
H          H       0.09608   0.69787   0.11303
H          H       0.90392   0.69787   0.88697
H          H       0.36500   0.66675   0.81254
H          H       0.63500   0.33325   0.81254
H          H       0.63500   0.66675   0.18746
H          H       0.36500   0.33325   0.18746
H          H       0.81254   0.36500   0.66675
H          H       0.81254   0.63500   0.33325
H          H       0.18746   0.63500   0.66675
H          H       0.18746   0.36500   0.33325
H          H       0.66675   0.81254   0.36500
H          H       0.33325   0.81254   0.63500
H          H       0.66675   0.18746   0.63500
H          H       0.33325   0.18746   0.36500
H          H       0.86500   0.16675   0.31254
H          H       0.13500   0.83325   0.31254
H          H       0.13500   0.16675   0.68746
H          H       0.86500   0.83325   0.68746
H          H       0.31254   0.86500   0.16675
H          H       0.31254   0.13500   0.83325
H          H       0.68746   0.13500   0.16675
H          H       0.68746   0.86500   0.83325
H          H       0.16675   0.31254   0.86500
H          H       0.83325   0.31254   0.13500
H          H       0.16675   0.68746   0.13500
H          H       0.83325   0.68746   0.86500
H          H       0.36844   0.55155   0.74353
H          H       0.63156   0.44845   0.74353
H          H       0.63156   0.55155   0.25647
H          H       0.36844   0.44845   0.25647
H          H       0.74353   0.36844   0.55155
H          H       0.74353   0.63156   0.44845
H          H       0.25647   0.63156   0.55155
H          H       0.25647   0.36844   0.44845
H          H       0.55155   0.74353   0.36844
H          H       0.44845   0.74353   0.63156
H          H       0.55155   0.25647   0.63156
H          H       0.44845   0.25647   0.36844
H          H       0.86844   0.05155   0.24353
H          H       0.13156   0.94845   0.24353
H          H       0.13156   0.05155   0.75647
H          H       0.86844   0.94845   0.75647
H          H       0.24353   0.86844   0.05155
H          H       0.24353   0.13156   0.94845
H          H       0.75647   0.13156   0.05155
H          H       0.75647   0.86844   0.94845
H          H       0.05155   0.24353   0.86844
H          H       0.94845   0.24353   0.13156
H          H       0.05155   0.75647   0.13156
H          H       0.94845   0.75647   0.86844
H          H       0.49514   0.38981   0.73793
H          H       0.50486   0.61019   0.73793
H          H       0.50486   0.38981   0.26207
H          H       0.49514   0.61019   0.26207
H          H       0.73793   0.49514   0.38981
H          H       0.73793   0.50486   0.61019
H          H       0.26207   0.50486   0.38981
H          H       0.26207   0.49514   0.61019
H          H       0.38981   0.73793   0.49514
H          H       0.61019   0.73793   0.50486
H          H       0.38981   0.26207   0.50486
H          H       0.61019   0.26207   0.49514
H          H       0.99514   0.88981   0.23793
H          H       0.00486   0.11019   0.23793
H          H       0.00486   0.88981   0.76207
H          H       0.99514   0.11019   0.76207
H          H       0.23793   0.99514   0.88981
H          H       0.23793   0.00486   0.11019
H          H       0.76207   0.00486   0.88981
H          H       0.76207   0.99514   0.11019
H          H       0.88981   0.23793   0.99514
H          H       0.11019   0.23793   0.00486
H          H       0.88981   0.76207   0.00486
H          H       0.11019   0.76207   0.99514
H          H       0.42847   0.41645   0.73192
H          H       0.57153   0.58355   0.73192
H          H       0.57153   0.41645   0.26808
H          H       0.42847   0.58355   0.26808
H          H       0.73192   0.42847   0.41645
H          H       0.73192   0.57153   0.58355
H          H       0.26808   0.57153   0.41645
H          H       0.26808   0.42847   0.58355
H          H       0.41645   0.73192   0.42847
H          H       0.58355   0.73192   0.57153
H          H       0.41645   0.26808   0.57153
H          H       0.58355   0.26808   0.42847
H          H       0.92847   0.91645   0.23192
H          H       0.07153   0.08355   0.23192
H          H       0.07153   0.91645   0.76808
H          H       0.92847   0.08355   0.76808
H          H       0.23192   0.92847   0.91645
H          H       0.23192   0.07153   0.08355
H          H       0.76808   0.07153   0.91645
H          H       0.76808   0.92847   0.08355
H          H       0.91645   0.23192   0.92847
H          H       0.08355   0.23192   0.07153
H          H       0.91645   0.76808   0.07153
H          H       0.08355   0.76808   0.92847
H          H       0.66604   0.49588   0.69840
H          H       0.33396   0.50412   0.69840
H          H       0.33396   0.49588   0.30160
H          H       0.66604   0.50412   0.30160
H          H       0.69840   0.66604   0.49588
H          H       0.69840   0.33396   0.50412
H          H       0.30160   0.33396   0.49588
H          H       0.30160   0.66604   0.50412
H          H       0.49588   0.69840   0.66604
H          H       0.50412   0.69840   0.33396
H          H       0.49588   0.30160   0.33396
H          H       0.50412   0.30160   0.66604
H          H       0.16604   0.99588   0.19840
H          H       0.83396   0.00412   0.19840
H          H       0.83396   0.99588   0.80160
H          H       0.16604   0.00412   0.80160
H          H       0.19840   0.16604   0.99588
H          H       0.19840   0.83396   0.00412
H          H       0.80160   0.83396   0.99588
H          H       0.80160   0.16604   0.00412
H          H       0.99588   0.19840   0.16604
H          H       0.00412   0.19840   0.83396
H          H       0.99588   0.80160   0.83396
H          H       0.00412   0.80160   0.16604
H          H       0.72685   0.53889   0.70484
H          H       0.27315   0.46111   0.70484
H          H       0.27315   0.53889   0.29516
H          H       0.72685   0.46111   0.29516
H          H       0.70484   0.72685   0.53889
H          H       0.70484   0.27315   0.46111
H          H       0.29516   0.27315   0.53889
H          H       0.29516   0.72685   0.46111
H          H       0.53889   0.70484   0.72685
H          H       0.46111   0.70484   0.27315
H          H       0.53889   0.29516   0.27315
H          H       0.46111   0.29516   0.72685
H          H       0.22685   0.03889   0.20484
H          H       0.77315   0.96111   0.20484
H          H       0.77315   0.03889   0.79516
H          H       0.22685   0.96111   0.79516
H          H       0.20484   0.22685   0.03889
H          H       0.20484   0.77315   0.96111
H          H       0.79516   0.77315   0.03889
H          H       0.79516   0.22685   0.96111
H          H       0.03889   0.20484   0.22685
H          H       0.96111   0.20484   0.77315
H          H       0.03889   0.79516   0.77315
H          H       0.96111   0.79516   0.22685
H          H       0.66673   0.61043   0.79843
H          H       0.33327   0.38957   0.79843
H          H       0.33327   0.61043   0.20157
H          H       0.66673   0.38957   0.20157
H          H       0.79843   0.66673   0.61043
H          H       0.79843   0.33327   0.38957
H          H       0.20157   0.33327   0.61043
H          H       0.20157   0.66673   0.38957
H          H       0.61043   0.79843   0.66673
H          H       0.38957   0.79843   0.33327
H          H       0.61043   0.20157   0.33327
H          H       0.38957   0.20157   0.66673
H          H       0.16673   0.11043   0.29843
H          H       0.83327   0.88957   0.29843
H          H       0.83327   0.11043   0.70157
H          H       0.16673   0.88957   0.70157
H          H       0.29843   0.16673   0.11043
H          H       0.29843   0.83327   0.88957
H          H       0.70157   0.83327   0.11043
H          H       0.70157   0.16673   0.88957
H          H       0.11043   0.29843   0.16673
H          H       0.88957   0.29843   0.83327
H          H       0.11043   0.70157   0.83327
H          H       0.88957   0.70157   0.16673
H          H       0.60649   0.56593   0.79404
H          H       0.39351   0.43407   0.79404
H          H       0.39351   0.56593   0.20596
H          H       0.60649   0.43407   0.20596
H          H       0.79404   0.60649   0.56593
H          H       0.79404   0.39351   0.43407
H          H       0.20596   0.39351   0.56593
H          H       0.20596   0.60649   0.43407
H          H       0.56593   0.79404   0.60649
H          H       0.43407   0.79404   0.39351
H          H       0.56593   0.20596   0.39351
H          H       0.43407   0.20596   0.60649
H          H       0.10649   0.06593   0.29404
H          H       0.89351   0.93407   0.29404
H          H       0.89351   0.06593   0.70596
H          H       0.10649   0.93407   0.70596
H          H       0.29404   0.10649   0.06593
H          H       0.29404   0.89351   0.93407
H          H       0.70596   0.89351   0.06593
H          H       0.70596   0.10649   0.93407
H          H       0.06593   0.29404   0.10649
H          H       0.93407   0.29404   0.89351
H          H       0.06593   0.70596   0.89351
H          H       0.93407   0.70596   0.10649
Ti         Ti      0.24512   0.75488   0.75488
Ti         Ti      0.75488   0.24512   0.75488
Ti         Ti      0.75488   0.75488   0.24512
Ti         Ti      0.24512   0.24512   0.24512
Ti         Ti      0.74512   0.25488   0.25488
Ti         Ti      0.25488   0.74512   0.25488
Ti         Ti      0.25488   0.25488   0.74512
Ti         Ti      0.74512   0.74512   0.74512
