data_crystal

_cell_length_a    37.30480
_cell_length_b    37.30480
_cell_length_c    7.08840
_cell_angle_alpha 90.00000
_cell_angle_beta  90.00000
_cell_angle_gamma 120.00000

_space_group_name_Hall 'P 1'
_space_group_name_H-M_alt  'P 1'

loop_
_symmetry_equiv_pos_as_xyz
 'x,y,z'

loop_
_atom_site_label
_atom_site_type_symbol
_atom_site_fract_x
_atom_site_fract_y
_atom_site_fract_z
C          C       0.70732   0.35776   0.00000
C          C       0.64224   0.34956   0.00000
C          C       0.65044   0.29268   0.00000
C          C       0.29268   0.64224   0.00000
C          C       0.35776   0.65044   0.00000
C          C       0.34956   0.70732   0.00000
N          N       0.68242   0.37278   0.00000
N          N       0.62722   0.30964   0.00000
N          N       0.69036   0.31758   0.00000
N          N       0.31758   0.62722   0.00000
N          N       0.37278   0.69036   0.00000
N          N       0.30964   0.68242   0.00000
C          C       0.83384   0.43378   0.00000
C          C       0.56622   0.40006   0.00000
C          C       0.59994   0.16616   0.00000
C          C       0.16616   0.56622   0.00000
C          C       0.43378   0.59994   0.00000
C          C       0.40006   0.83384   0.00000
C          C       0.80843   0.44986   0.00000
C          C       0.55014   0.35857   0.00000
C          C       0.64143   0.19157   0.00000
C          C       0.19157   0.55014   0.00000
C          C       0.44986   0.64143   0.00000
C          C       0.35857   0.80843   0.00000
C          C       0.76683   0.42493   0.00000
C          C       0.57507   0.34190   0.00000
C          C       0.65810   0.23317   0.00000
C          C       0.23317   0.57507   0.00000
C          C       0.42493   0.65810   0.00000
C          C       0.34190   0.76683   0.00000
C          C       0.74919   0.38291   0.00000
C          C       0.61709   0.36628   0.00000
C          C       0.63372   0.25081   0.00000
C          C       0.25081   0.61709   0.00000
C          C       0.38291   0.63372   0.00000
C          C       0.36628   0.74919   0.00000
C          C       0.77516   0.36708   0.00000
C          C       0.63292   0.40808   0.00000
C          C       0.59192   0.22484   0.00000
C          C       0.22484   0.63292   0.00000
C          C       0.36708   0.59192   0.00000
C          C       0.40808   0.77516   0.00000
C          C       0.81677   0.39202   0.00000
C          C       0.60798   0.42475   0.00000
C          C       0.57525   0.18323   0.00000
C          C       0.18323   0.60798   0.00000
C          C       0.39202   0.57525   0.00000
C          C       0.42475   0.81677   0.00000
H          H       0.82038   0.48010   0.00000
H          H       0.51990   0.34028   0.00000
H          H       0.65972   0.17962   0.00000
H          H       0.17962   0.51990   0.00000
H          H       0.48010   0.65972   0.00000
H          H       0.34028   0.82038   0.00000
H          H       0.74949   0.43791   0.00000
H          H       0.56209   0.31158   0.00000
H          H       0.68842   0.25051   0.00000
H          H       0.25051   0.56209   0.00000
H          H       0.43791   0.68842   0.00000
H          H       0.31158   0.74949   0.00000
H          H       0.76395   0.33697   0.00000
H          H       0.66303   0.42698   0.00000
H          H       0.57302   0.23605   0.00000
H          H       0.23605   0.66303   0.00000
H          H       0.33697   0.57302   0.00000
H          H       0.42698   0.76395   0.00000
H          H       0.83429   0.37933   0.00000
H          H       0.62067   0.45496   0.00000
H          H       0.54504   0.16571   0.00000
H          H       0.16571   0.62067   0.00000
H          H       0.37933   0.54504   0.00000
H          H       0.45496   0.83429   0.00000
N          N       0.12669   0.53971   0.00000
N          N       0.46029   0.58698   0.00000
N          N       0.41302   0.87331   0.00000
N          N       0.87331   0.46029   0.00000
N          N       0.53971   0.41302   0.00000
N          N       0.58698   0.12669   0.00000
C          C       0.09421   0.54400   0.00000
C          C       0.45600   0.55021   0.00000
C          C       0.44979   0.90579   0.00000
C          C       0.90579   0.45600   0.00000
C          C       0.54400   0.44979   0.00000
C          C       0.55021   0.09421   0.00000
C          C       0.05433   0.51174   0.00000
C          C       0.48826   0.54259   0.00000
C          C       0.45741   0.94567   0.00000
C          C       0.94567   0.48826   0.00000
C          C       0.51174   0.45741   0.00000
C          C       0.54259   0.05433   0.00000
C          C       0.01995   0.51687   0.00000
C          C       0.48313   0.50308   0.00000
C          C       0.49692   0.98005   0.00000
C          C       0.98005   0.48313   0.00000
C          C       0.51687   0.49692   0.00000
C          C       0.50308   0.01995   0.00000
C          C       0.97630   0.44482   0.00000
C          C       0.55518   0.53148   0.00000
C          C       0.46852   0.02370   0.00000
C          C       0.02370   0.55518   0.00000
C          C       0.44482   0.46852   0.00000
C          C       0.53148   0.97630   0.00000
C          C       0.00928   0.43951   0.00000
C          C       0.56049   0.56977   0.00000
C          C       0.43023   0.99072   0.00000
C          C       0.99072   0.56049   0.00000
C          C       0.43951   0.43023   0.00000
C          C       0.56977   0.00928   0.00000
C          C       0.04774   0.47224   0.00000
C          C       0.52776   0.57550   0.00000
C          C       0.42450   0.95226   0.00000
C          C       0.95226   0.52776   0.00000
C          C       0.47224   0.42450   0.00000
C          C       0.57550   0.04774   0.00000
O          O       0.07679   0.46255   0.00000
O          O       0.53745   0.61424   0.00000
O          O       0.38576   0.92321   0.00000
O          O       0.92321   0.53745   0.00000
O          O       0.46255   0.38576   0.00000
O          O       0.61424   0.07679   0.00000
H          H       0.09983   0.57241   0.00000
H          H       0.42759   0.52742   0.00000
H          H       0.47258   0.90017   0.00000
H          H       0.90017   0.42759   0.00000
H          H       0.57241   0.47258   0.00000
H          H       0.52742   0.09983   0.00000
H          H       0.94957   0.41925   0.00000
H          H       0.58075   0.53032   0.00000
H          H       0.46968   0.05043   0.00000
H          H       0.05043   0.58075   0.00000
H          H       0.41925   0.46968   0.00000
H          H       0.53032   0.94957   0.00000
H          H       0.00518   0.41136   0.00000
H          H       0.58864   0.59382   0.00000
H          H       0.40618   0.99482   0.00000
H          H       0.99482   0.58864   0.00000
H          H       0.41136   0.40618   0.00000
H          H       0.59382   0.00518   0.00000
H          H       0.92978   0.56523   0.00000
H          H       0.43477   0.36455   0.00000
H          H       0.63545   0.07022   0.00000
H          H       0.07022   0.43477   0.00000
H          H       0.56523   0.63545   0.00000
H          H       0.36455   0.92978   0.00000
C          C       0.70732   0.35776   0.50000
C          C       0.64224   0.34956   0.50000
C          C       0.65044   0.29268   0.50000
C          C       0.29268   0.64224   0.50000
C          C       0.35776   0.65044   0.50000
C          C       0.34956   0.70732   0.50000
N          N       0.68242   0.37278   0.50000
N          N       0.62722   0.30964   0.50000
N          N       0.69036   0.31758   0.50000
N          N       0.31758   0.62722   0.50000
N          N       0.37278   0.69036   0.50000
N          N       0.30964   0.68242   0.50000
C          C       0.83384   0.43378   0.50000
C          C       0.56622   0.40006   0.50000
C          C       0.59994   0.16616   0.50000
C          C       0.16616   0.56622   0.50000
C          C       0.43378   0.59994   0.50000
C          C       0.40006   0.83384   0.50000
C          C       0.80843   0.44986   0.50000
C          C       0.55014   0.35857   0.50000
C          C       0.64143   0.19157   0.50000
C          C       0.19157   0.55014   0.50000
C          C       0.44986   0.64143   0.50000
C          C       0.35857   0.80843   0.50000
C          C       0.76683   0.42493   0.50000
C          C       0.57507   0.34190   0.50000
C          C       0.65810   0.23317   0.50000
C          C       0.23317   0.57507   0.50000
C          C       0.42493   0.65810   0.50000
C          C       0.34190   0.76683   0.50000
C          C       0.74919   0.38291   0.50000
C          C       0.61709   0.36628   0.50000
C          C       0.63372   0.25081   0.50000
C          C       0.25081   0.61709   0.50000
C          C       0.38291   0.63372   0.50000
C          C       0.36628   0.74919   0.50000
C          C       0.77516   0.36708   0.50000
C          C       0.63292   0.40808   0.50000
C          C       0.59192   0.22484   0.50000
C          C       0.22484   0.63292   0.50000
C          C       0.36708   0.59192   0.50000
C          C       0.40808   0.77516   0.50000
C          C       0.81677   0.39202   0.50000
C          C       0.60798   0.42475   0.50000
C          C       0.57525   0.18323   0.50000
C          C       0.18323   0.60798   0.50000
C          C       0.39202   0.57525   0.50000
C          C       0.42475   0.81677   0.50000
H          H       0.82038   0.48010   0.50000
H          H       0.51990   0.34028   0.50000
H          H       0.65972   0.17962   0.50000
H          H       0.17962   0.51990   0.50000
H          H       0.48010   0.65972   0.50000
H          H       0.34028   0.82038   0.50000
H          H       0.74949   0.43791   0.50000
H          H       0.56209   0.31158   0.50000
H          H       0.68842   0.25051   0.50000
H          H       0.25051   0.56209   0.50000
H          H       0.43791   0.68842   0.50000
H          H       0.31158   0.74949   0.50000
H          H       0.76395   0.33697   0.50000
H          H       0.66303   0.42698   0.50000
H          H       0.57302   0.23605   0.50000
H          H       0.23605   0.66303   0.50000
H          H       0.33697   0.57302   0.50000
H          H       0.42698   0.76395   0.50000
H          H       0.83429   0.37933   0.50000
H          H       0.62067   0.45496   0.50000
H          H       0.54504   0.16571   0.50000
H          H       0.16571   0.62067   0.50000
H          H       0.37933   0.54504   0.50000
H          H       0.45496   0.83429   0.50000
N          N       0.12669   0.53971   0.50000
N          N       0.46029   0.58698   0.50000
N          N       0.41302   0.87331   0.50000
N          N       0.87331   0.46029   0.50000
N          N       0.53971   0.41302   0.50000
N          N       0.58698   0.12669   0.50000
C          C       0.09421   0.54400   0.50000
C          C       0.45600   0.55021   0.50000
C          C       0.44979   0.90579   0.50000
C          C       0.90579   0.45600   0.50000
C          C       0.54400   0.44979   0.50000
C          C       0.55021   0.09421   0.50000
C          C       0.05433   0.51174   0.50000
C          C       0.48826   0.54259   0.50000
C          C       0.45741   0.94567   0.50000
C          C       0.94567   0.48826   0.50000
C          C       0.51174   0.45741   0.50000
C          C       0.54259   0.05433   0.50000
C          C       0.01995   0.51687   0.50000
C          C       0.48313   0.50308   0.50000
C          C       0.49692   0.98005   0.50000
C          C       0.98005   0.48313   0.50000
C          C       0.51687   0.49692   0.50000
C          C       0.50308   0.01995   0.50000
C          C       0.97630   0.44482   0.50000
C          C       0.55518   0.53148   0.50000
C          C       0.46852   0.02370   0.50000
C          C       0.02370   0.55518   0.50000
C          C       0.44482   0.46852   0.50000
C          C       0.53148   0.97630   0.50000
C          C       0.00928   0.43951   0.50000
C          C       0.56049   0.56977   0.50000
C          C       0.43023   0.99072   0.50000
C          C       0.99072   0.56049   0.50000
C          C       0.43951   0.43023   0.50000
C          C       0.56977   0.00928   0.50000
C          C       0.04774   0.47224   0.50000
C          C       0.52776   0.57550   0.50000
C          C       0.42450   0.95226   0.50000
C          C       0.95226   0.52776   0.50000
C          C       0.47224   0.42450   0.50000
C          C       0.57550   0.04774   0.50000
O          O       0.07679   0.46255   0.50000
O          O       0.53745   0.61424   0.50000
O          O       0.38576   0.92321   0.50000
O          O       0.92321   0.53745   0.50000
O          O       0.46255   0.38576   0.50000
O          O       0.61424   0.07679   0.50000
H          H       0.09983   0.57241   0.50000
H          H       0.42759   0.52742   0.50000
H          H       0.47258   0.90017   0.50000
H          H       0.90017   0.42759   0.50000
H          H       0.57241   0.47258   0.50000
H          H       0.52742   0.09983   0.50000
H          H       0.94957   0.41925   0.50000
H          H       0.58075   0.53032   0.50000
H          H       0.46968   0.05043   0.50000
H          H       0.05043   0.58075   0.50000
H          H       0.41925   0.46968   0.50000
H          H       0.53032   0.94957   0.50000
H          H       0.00518   0.41136   0.50000
H          H       0.58864   0.59382   0.50000
H          H       0.40618   0.99482   0.50000
H          H       0.99482   0.58864   0.50000
H          H       0.41136   0.40618   0.50000
H          H       0.59382   0.00518   0.50000
H          H       0.92978   0.56523   0.50000
H          H       0.43477   0.36455   0.50000
H          H       0.63545   0.07022   0.50000
H          H       0.07022   0.43477   0.50000
H          H       0.56523   0.63545   0.50000
H          H       0.36455   0.92978   0.50000
