data_crystal
 
_cell_length_a    44.73060
_cell_length_b    44.73060
_cell_length_c    7.14920
_cell_angle_alpha 90.00000
_cell_angle_beta  90.00000
_cell_angle_gamma 120.00000
 
_space_group_name_Hall 'P 1'
_space_group_name_H-M_alt  'P 1'
 
loop_
_symmetry_equiv_pos_as_xyz
 'x,y,z' 
 
loop_
_atom_site_label
_atom_site_type_symbol
_atom_site_fract_x
_atom_site_fract_y
_atom_site_fract_z
C          C       0.34911   0.70220   0.00000 
C          C       0.29780   0.64691   0.00000 
C          C       0.35309   0.65089   0.00000 
C          C       0.65089   0.29780   0.00000 
C          C       0.70220   0.35309   0.00000 
C          C       0.64691   0.34911   0.00000 
C          C       0.36882   0.68582   0.00000 
C          C       0.31418   0.68300   0.00000 
C          C       0.31700   0.63118   0.00000 
C          C       0.63118   0.31418   0.00000 
C          C       0.68582   0.31700   0.00000 
C          C       0.68300   0.36882   0.00000 
C          C       0.37423   0.63282   0.00000 
C          C       0.36718   0.74141   0.00000 
C          C       0.25859   0.62577   0.00000 
C          C       0.62577   0.36718   0.00000 
C          C       0.63282   0.25859   0.00000 
C          C       0.74141   0.37423   0.00000 
C          C       0.41038   0.65256   0.00000 
C          C       0.34744   0.75782   0.00000 
C          C       0.24218   0.58962   0.00000 
C          C       0.58962   0.34744   0.00000 
C          C       0.65256   0.24218   0.00000 
C          C       0.75782   0.41038   0.00000 
C          C       0.43033   0.63658   0.00000 
C          C       0.36342   0.79375   0.00000 
C          C       0.20625   0.56967   0.00000 
C          C       0.56967   0.36342   0.00000 
C          C       0.63658   0.20625   0.00000 
C          C       0.79375   0.43033   0.00000 
C          C       0.41454   0.60064   0.00000 
C          C       0.39936   0.81390   0.00000 
C          C       0.18610   0.58546   0.00000 
C          C       0.58546   0.39936   0.00000 
C          C       0.60064   0.18610   0.00000 
C          C       0.81390   0.41454   0.00000 
C          C       0.37841   0.58073   0.00000 
C          C       0.41927   0.79768   0.00000 
C          C       0.20232   0.62159   0.00000 
C          C       0.62159   0.41927   0.00000 
C          C       0.58073   0.20232   0.00000 
C          C       0.79768   0.37841   0.00000 
C          C       0.35847   0.59672   0.00000 
C          C       0.40328   0.76175   0.00000 
C          C       0.23825   0.64153   0.00000 
C          C       0.64153   0.40328   0.00000 
C          C       0.59672   0.23825   0.00000 
C          C       0.76175   0.35847   0.00000 
N          N       0.43572   0.58505   0.00000 
N          N       0.41495   0.85067   0.00000 
N          N       0.14933   0.56428   0.00000 
N          N       0.56428   0.41495   0.00000 
N          N       0.58505   0.14933   0.00000 
N          N       0.85067   0.43572   0.00000 
C          C       0.42327   0.55197   0.00000 
C          C       0.44803   0.87130   0.00000 
C          C       0.12870   0.57673   0.00000 
C          C       0.57673   0.44803   0.00000 
C          C       0.55197   0.12870   0.00000 
C          C       0.87130   0.42327   0.00000 
C          C       0.44589   0.53709   0.00000 
C          C       0.46291   0.90880   0.00000 
C          C       0.09120   0.55411   0.00000 
C          C       0.55411   0.46291   0.00000 
C          C       0.53709   0.09120   0.00000 
C          C       0.90880   0.44589   0.00000 
C          C       0.43120   0.50127   0.00000 
C          C       0.49873   0.92993   0.00000 
C          C       0.07007   0.56880   0.00000 
C          C       0.56880   0.49873   0.00000 
C          C       0.50127   0.07007   0.00000 
C          C       0.92993   0.43120   0.00000 
C          C       0.45224   0.48646   0.00000 
C          C       0.51354   0.96578   0.00000 
C          C       0.03422   0.54776   0.00000 
C          C       0.54776   0.51354   0.00000 
C          C       0.48646   0.03422   0.00000 
C          C       0.96578   0.45224   0.00000 
C          C       0.48830   0.50730   0.00000 
C          C       0.49270   0.98100   0.00000 
C          C       0.01900   0.51170   0.00000 
C          C       0.51170   0.49270   0.00000 
C          C       0.50730   0.01900   0.00000 
C          C       0.98100   0.48830   0.00000 
C          C       0.50285   0.54328   0.00000 
C          C       0.45672   0.95957   0.00000 
C          C       0.04043   0.49715   0.00000 
C          C       0.49715   0.45672   0.00000 
C          C       0.54328   0.04043   0.00000 
C          C       0.95957   0.50285   0.00000 
C          C       0.48183   0.55809   0.00000 
C          C       0.44191   0.92374   0.00000 
C          C       0.07626   0.51817   0.00000 
C          C       0.51817   0.44191   0.00000 
C          C       0.55809   0.07626   0.00000 
C          C       0.92374   0.48183   0.00000 
C          C       0.34911   0.70220   0.50000 
C          C       0.29780   0.64691   0.50000 
C          C       0.35309   0.65089   0.50000 
C          C       0.65089   0.29780   0.50000 
C          C       0.70220   0.35309   0.50000 
C          C       0.64691   0.34911   0.50000 
C          C       0.36882   0.68582   0.50000 
C          C       0.31418   0.68300   0.50000 
C          C       0.31700   0.63118   0.50000 
C          C       0.63118   0.31418   0.50000 
C          C       0.68582   0.31700   0.50000 
C          C       0.68300   0.36882   0.50000 
C          C       0.37423   0.63282   0.50000 
C          C       0.36718   0.74141   0.50000 
C          C       0.25859   0.62577   0.50000 
C          C       0.62577   0.36718   0.50000 
C          C       0.63282   0.25859   0.50000 
C          C       0.74141   0.37423   0.50000 
C          C       0.41038   0.65256   0.50000 
C          C       0.34744   0.75782   0.50000 
C          C       0.24218   0.58962   0.50000 
C          C       0.58962   0.34744   0.50000 
C          C       0.65256   0.24218   0.50000 
C          C       0.75782   0.41038   0.50000 
C          C       0.43033   0.63658   0.50000 
C          C       0.36342   0.79375   0.50000 
C          C       0.20625   0.56967   0.50000 
C          C       0.56967   0.36342   0.50000 
C          C       0.63658   0.20625   0.50000 
C          C       0.79375   0.43033   0.50000 
C          C       0.41454   0.60064   0.50000 
C          C       0.39936   0.81390   0.50000 
C          C       0.18610   0.58546   0.50000 
C          C       0.58546   0.39936   0.50000 
C          C       0.60064   0.18610   0.50000 
C          C       0.81390   0.41454   0.50000 
C          C       0.37841   0.58073   0.50000 
C          C       0.41927   0.79768   0.50000 
C          C       0.20232   0.62159   0.50000 
C          C       0.62159   0.41927   0.50000 
C          C       0.58073   0.20232   0.50000 
C          C       0.79768   0.37841   0.50000 
C          C       0.35847   0.59672   0.50000 
C          C       0.40328   0.76175   0.50000 
C          C       0.23825   0.64153   0.50000 
C          C       0.64153   0.40328   0.50000 
C          C       0.59672   0.23825   0.50000 
C          C       0.76175   0.35847   0.50000 
N          N       0.43572   0.58505   0.50000 
N          N       0.41495   0.85067   0.50000 
N          N       0.14933   0.56428   0.50000 
N          N       0.56428   0.41495   0.50000 
N          N       0.58505   0.14933   0.50000 
N          N       0.85067   0.43572   0.50000 
C          C       0.42327   0.55197   0.50000 
C          C       0.44803   0.87130   0.50000 
C          C       0.12870   0.57673   0.50000 
C          C       0.57673   0.44803   0.50000 
C          C       0.55197   0.12870   0.50000 
C          C       0.87130   0.42327   0.50000 
C          C       0.44589   0.53709   0.50000 
C          C       0.46291   0.90880   0.50000 
C          C       0.09120   0.55411   0.50000 
C          C       0.55411   0.46291   0.50000 
C          C       0.53709   0.09120   0.50000 
C          C       0.90880   0.44589   0.50000 
C          C       0.43120   0.50127   0.50000 
C          C       0.49873   0.92993   0.50000 
C          C       0.07007   0.56880   0.50000 
C          C       0.56880   0.49873   0.50000 
C          C       0.50127   0.07007   0.50000 
C          C       0.92993   0.43120   0.50000 
C          C       0.45224   0.48646   0.50000 
C          C       0.51354   0.96578   0.50000 
C          C       0.03422   0.54776   0.50000 
C          C       0.54776   0.51354   0.50000 
C          C       0.48646   0.03422   0.50000 
C          C       0.96578   0.45224   0.50000 
C          C       0.48830   0.50730   0.50000 
C          C       0.49270   0.98100   0.50000 
C          C       0.01900   0.51170   0.50000 
C          C       0.51170   0.49270   0.50000 
C          C       0.50730   0.01900   0.50000 
C          C       0.98100   0.48830   0.50000 
C          C       0.50285   0.54328   0.50000 
C          C       0.45672   0.95957   0.50000 
C          C       0.04043   0.49715   0.50000 
C          C       0.49715   0.45672   0.50000 
C          C       0.54328   0.04043   0.50000 
C          C       0.95957   0.50285   0.50000 
C          C       0.48183   0.55809   0.50000 
C          C       0.44191   0.92374   0.50000 
C          C       0.07626   0.51817   0.50000 
C          C       0.51817   0.44191   0.50000 
C          C       0.55809   0.07626   0.50000 
C          C       0.92374   0.48183   0.50000 
