data_crystal

_cell_length_a    45.58860
_cell_length_b    45.58860
_cell_length_c    7.51200
_cell_angle_alpha 90.00000
_cell_angle_beta  90.00000
_cell_angle_gamma 120.00000

_space_group_name_Hall 'P 1'
_space_group_name_H-M_alt  'P 1'

loop_
_symmetry_equiv_pos_as_xyz
'x,y,z'

loop_
_atom_site_label
_atom_site_type_symbol
_atom_site_fract_x
_atom_site_fract_y
_atom_site_fract_z
C    C    0.297800    0.644780    0.319610
C    C    0.355220    0.653020    0.319610
C    C    0.346980    0.702200    0.319610
C    C    0.702200    0.355220    0.319610
C    C    0.644780    0.346980    0.319610
C    C    0.653020    0.297800    0.319610
C    C    0.319860    0.631610    0.320530
C    C    0.368390    0.688250    0.320530
C    C    0.311750    0.680140    0.320530
C    C    0.680140    0.368390    0.320530
C    C    0.631610    0.311750    0.320530
C    C    0.688250    0.319860    0.320530
C    C    0.260320    0.621560    0.315140
C    C    0.378440    0.638760    0.315140
C    C    0.361240    0.739680    0.315140
C    C    0.739680    0.378440    0.315140
C    C    0.621560    0.361240    0.315140
C    C    0.638760    0.260320    0.315140
C    C    0.368790    0.607470    0.233970
C    C    0.392530    0.761320    0.233970
C    C    0.238680    0.631210    0.233970
C    C    0.631210    0.392530    0.233970
C    C    0.607470    0.238680    0.233970
C    C    0.761320    0.368790    0.233970
C    C    0.390850    0.594050    0.227930
C    C    0.405950    0.796800    0.227930
C    C    0.203200    0.609150    0.227930
C    C    0.609150    0.405950    0.227930
C    C    0.594050    0.203200    0.227930
C    C    0.796800    0.390850    0.227930
C    C    0.423720    0.612810    0.301530
C    C    0.387190    0.810910    0.301530
C    C    0.189090    0.576280    0.301530
C    C    0.576280    0.387190    0.301530
C    C    0.612810    0.189090    0.301530
C    C    0.810910    0.423720    0.301530
C    C    0.434440    0.644480    0.380200
C    C    0.355520    0.789960    0.380200
C    C    0.210040    0.565560    0.380200
C    C    0.565560    0.355520    0.380200
C    C    0.644480    0.210040    0.380200
C    C    0.789960    0.434440    0.380200
C    C    0.412870    0.657660    0.392020
C    C    0.342340    0.755210    0.392020
C    C    0.244790    0.587130    0.392020
C    C    0.587130    0.342340    0.392020
C    C    0.657660    0.244790    0.392020
C    C    0.755210    0.412870    0.392020
C    C    0.447740    0.599840    0.297630
C    C    0.400160    0.847900    0.297630
C    C    0.152100    0.552260    0.297630
C    C    0.552260    0.400160    0.297630
C    C    0.599840    0.152100    0.297630
C    C    0.847900    0.447740    0.297630
H    H    0.309420    0.604530    0.320900
H    H    0.395470    0.704890    0.320900
H    H    0.295110    0.690580    0.320900
H    H    0.690580    0.395470    0.320900
H    H    0.604530    0.295110    0.320900
H    H    0.704890    0.309420    0.320900
H    H    0.344410    0.594120    0.170050
H    H    0.405880    0.750290    0.170050
H    H    0.249710    0.655590    0.170050
H    H    0.655590    0.405880    0.170050
H    H    0.594120    0.249710    0.170050
H    H    0.750290    0.344410    0.170050
O    O    0.382050    0.563080    0.142810
O    O    0.436920    0.818970    0.142810
O    O    0.181030    0.617950    0.142810
O    O    0.617950    0.436920    0.142810
O    O    0.563080    0.181030    0.142810
O    O    0.818970    0.382050    0.142810
H    H    0.459460    0.658620    0.438600
H    H    0.341380    0.800840    0.438600
H    H    0.199160    0.540540    0.438600
H    H    0.540540    0.341380    0.438600
H    H    0.658620    0.199160    0.438600
H    H    0.800840    0.459460    0.438600
H    H    0.421380    0.681190    0.463060
H    H    0.318810    0.740190    0.463060
H    H    0.259810    0.578620    0.463060
H    H    0.578620    0.318810    0.463060
H    H    0.681190    0.259810    0.463060
H    H    0.740190    0.421380    0.463060
O    O    0.477440    0.619270    0.262260
O    O    0.380730    0.858170    0.262260
O    O    0.141830    0.522560    0.262260
O    O    0.522560    0.380730    0.262260
O    O    0.619270    0.141830    0.262260
O    O    0.858170    0.477440    0.262260
C    C    0.347820    0.541330    0.088180
C    C    0.458670    0.806490    0.088180
C    C    0.193510    0.652180    0.088180
C    C    0.652180    0.458670    0.088180
C    C    0.541330    0.193510    0.088180
C    C    0.806490    0.347820    0.088180
N    N    0.437400    0.566840    0.338750
N    N    0.433160    0.870560    0.338750
N    N    0.129440    0.562600    0.338750
N    N    0.562600    0.433160    0.338750
N    N    0.566840    0.129440    0.338750
N    N    0.870560    0.437400    0.338750
H    H    0.340080    0.553880    0.487730
H    H    0.446120    0.786200    0.487730
H    H    0.213800    0.659920    0.487730
H    H    0.659920    0.446120    0.487730
H    H    0.553880    0.213800    0.487730
H    H    0.786200    0.340080    0.487730
H    H    0.330370    0.533330    0.203520
H    H    0.466670    0.797040    0.203520
H    H    0.202960    0.669630    0.203520
H    H    0.669630    0.466670    0.203520
H    H    0.533330    0.202960    0.203520
H    H    0.797040    0.330370    0.203520
H    H    0.345870    0.518320    0.026420
H    H    0.481680    0.827550    0.026420
H    H    0.172450    0.654130    0.026420
H    H    0.654130    0.481680    0.026420
H    H    0.518320    0.172450    0.026420
H    H    0.827550    0.345870    0.026420
H    H    0.412330    0.550430    0.376560
H    H    0.449570    0.861900    0.376560
H    H    0.138100    0.587670    0.376560
H    H    0.587670    0.449570    0.376560
H    H    0.550430    0.138100    0.376560
H    H    0.861900    0.412330    0.376560
C    C    0.297800    0.644780    0.819610
C    C    0.355220    0.653020    0.819610
C    C    0.346980    0.702200    0.819610
C    C    0.702200    0.355220    0.819610
C    C    0.644780    0.346980    0.819610
C    C    0.653020    0.297800    0.819610
C    C    0.319860    0.631610    0.820530
C    C    0.368390    0.688250    0.820530
C    C    0.311750    0.680140    0.820530
C    C    0.680140    0.368390    0.820530
C    C    0.631610    0.311750    0.820530
C    C    0.688250    0.319860    0.820530
C    C    0.260320    0.621560    0.815140
C    C    0.378440    0.638760    0.815140
C    C    0.361240    0.739680    0.815140
C    C    0.739680    0.378440    0.815140
C    C    0.621560    0.361240    0.815140
C    C    0.638760    0.260320    0.815140
C    C    0.368790    0.607470    0.733970
C    C    0.392530    0.761320    0.733970
C    C    0.238680    0.631210    0.733970
C    C    0.631210    0.392530    0.733970
C    C    0.607470    0.238680    0.733970
C    C    0.761320    0.368790    0.733970
C    C    0.390850    0.594050    0.727930
C    C    0.405950    0.796800    0.727930
C    C    0.203200    0.609150    0.727930
C    C    0.609150    0.405950    0.727930
C    C    0.594050    0.203200    0.727930
C    C    0.796800    0.390850    0.727930
C    C    0.423720    0.612810    0.801530
C    C    0.387190    0.810910    0.801530
C    C    0.189090    0.576280    0.801530
C    C    0.576280    0.387190    0.801530
C    C    0.612810    0.189090    0.801530
C    C    0.810910    0.423720    0.801530
C    C    0.434440    0.644480    0.880200
C    C    0.355520    0.789960    0.880200
C    C    0.210040    0.565560    0.880200
C    C    0.565560    0.355520    0.880200
C    C    0.644480    0.210040    0.880200
C    C    0.789960    0.434440    0.880200
C    C    0.412870    0.657660    0.892020
C    C    0.342340    0.755210    0.892020
C    C    0.244790    0.587130    0.892020
C    C    0.587130    0.342340    0.892020
C    C    0.657660    0.244790    0.892020
C    C    0.755210    0.412870    0.892020
C    C    0.447740    0.599840    0.797630
C    C    0.400160    0.847900    0.797630
C    C    0.152100    0.552260    0.797630
C    C    0.552260    0.400160    0.797630
C    C    0.599840    0.152100    0.797630
C    C    0.847900    0.447740    0.797630
H    H    0.309420    0.604530    0.820900
H    H    0.395470    0.704890    0.820900
H    H    0.295110    0.690580    0.820900
H    H    0.690580    0.395470    0.820900
H    H    0.604530    0.295110    0.820900
H    H    0.704890    0.309420    0.820900
H    H    0.344410    0.594120    0.670050
H    H    0.405880    0.750290    0.670050
H    H    0.249710    0.655590    0.670050
H    H    0.655590    0.405880    0.670050
H    H    0.594120    0.249710    0.670050
H    H    0.750290    0.344410    0.670050
O    O    0.382050    0.563080    0.642810
O    O    0.436920    0.818970    0.642810
O    O    0.181030    0.617950    0.642810
O    O    0.617950    0.436920    0.642810
O    O    0.563080    0.181030    0.642810
O    O    0.818970    0.382050    0.642810
H    H    0.459460    0.658620    0.938590
H    H    0.341380    0.800840    0.938590
H    H    0.199160    0.540540    0.938590
H    H    0.540540    0.341380    0.938590
H    H    0.658620    0.199160    0.938590
H    H    0.800840    0.459460    0.938590
H    H    0.421380    0.681190    0.963060
H    H    0.318810    0.740190    0.963060
H    H    0.259810    0.578620    0.963060
H    H    0.578620    0.318810    0.963060
H    H    0.681190    0.259810    0.963060
H    H    0.740190    0.421380    0.963060
O    O    0.477440    0.619270    0.762260
O    O    0.380730    0.858170    0.762260
O    O    0.141830    0.522560    0.762260
O    O    0.522560    0.380730    0.762260
O    O    0.619270    0.141830    0.762260
O    O    0.858170    0.477440    0.762260
C    C    0.347820    0.541330    0.588180
C    C    0.458670    0.806490    0.588180
C    C    0.193510    0.652180    0.588180
C    C    0.652180    0.458670    0.588180
C    C    0.541330    0.193510    0.588180
C    C    0.806490    0.347820    0.588180
N    N    0.437400    0.566840    0.838750
N    N    0.433160    0.870560    0.838750
N    N    0.129440    0.562600    0.838750
N    N    0.562600    0.433160    0.838750
N    N    0.566840    0.129440    0.838750
N    N    0.870560    0.437400    0.838750
H    H    0.340080    0.553880    0.987730
H    H    0.446120    0.786200    0.987730
H    H    0.213800    0.659920    0.987730
H    H    0.659920    0.446120    0.987730
H    H    0.553880    0.213800    0.987730
H    H    0.786200    0.340080    0.987730
H    H    0.330370    0.533330    0.703520
H    H    0.466670    0.797040    0.703520
H    H    0.202960    0.669630    0.703520
H    H    0.669630    0.466670    0.703520
H    H    0.533330    0.202960    0.703520
H    H    0.797040    0.330370    0.703520
H    H    0.345870    0.518320    0.526420
H    H    0.481680    0.827550    0.526420
H    H    0.172450    0.654130    0.526420
H    H    0.654130    0.481680    0.526420
H    H    0.518320    0.172450    0.526420
H    H    0.827550    0.345870    0.526420
H    H    0.412330    0.550430    0.876560
H    H    0.449570    0.861900    0.876560
H    H    0.138100    0.587670    0.876560
H    H    0.587670    0.449570    0.876560
H    H    0.550430    0.138100    0.876560
H    H    0.861900    0.412330    0.876560
C    C    0.467390    0.419910    0.400800
C    C    0.532610    0.580090    0.400800
C    C    0.451920    0.524410    0.381791
C    C    0.548080    0.475590    0.381791
C    C    0.476690    0.512460    0.384220
C    C    0.523310    0.487540    0.384220
C    C    0.464210    0.477510    0.386920
C    C    0.535790    0.522490    0.386920
C    C    0.485910    0.464230    0.387360
C    C    0.514090    0.535770    0.387360
H    H    0.437100    0.460200    0.388640
H    H    0.562900    0.539800    0.388640
N    N    0.460800    0.555360    0.341179
N    N    0.539200    0.444640    0.341180
H    H    0.425570    0.506500    0.410580
H    H    0.574430    0.493500    0.410580
H    H    0.513151    0.586697    0.399879
H    H    0.549042    0.591574    0.289279
H    H    0.546893    0.588935    0.521411
H    H    0.486849    0.413303    0.399879
H    H    0.450958    0.408426    0.289279
H    H    0.453107    0.411065    0.521411
C    C    0.419910    0.952520    0.400800
C    C    0.580090    0.047480    0.400800
C    C    0.524410    0.072490    0.381791
C    C    0.475590    0.927510    0.381791
C    C    0.512460    0.035770    0.384220
C    C    0.487540    0.964230    0.384220
C    C    0.477510    0.013300    0.386920
C    C    0.522490    0.986700    0.386920
C    C    0.464230    0.978320    0.387360
C    C    0.535770    0.021680    0.387360
H    H    0.460200    0.023100    0.388640
H    H    0.539800    0.976900    0.388640
N    N    0.555360    0.094560    0.341179
N    N    0.444640    0.905440    0.341180
H    H    0.506500    0.080930    0.410580
H    H    0.493500    0.919070    0.410580
H    H    0.586697    0.073546    0.399879
H    H    0.591574    0.042532    0.289279
H    H    0.588935    0.042042    0.521411
H    H    0.413303    0.926454    0.399879
H    H    0.408426    0.957468    0.289279
H    H    0.411065    0.957958    0.521411
C    C    0.952520    0.532610    0.400800
C    C    0.047480    0.467390    0.400800
C    C    0.072490    0.548080    0.381791
C    C    0.927510    0.451920    0.381791
C    C    0.035770    0.523310    0.384220
C    C    0.964230    0.476690    0.384220
C    C    0.013300    0.535790    0.386920
C    C    0.986700    0.464210    0.386920
C    C    0.978320    0.514090    0.387360
C    C    0.021680    0.485910    0.387360
H    H    0.023100    0.562900    0.388640
H    H    0.976900    0.437100    0.388640
N    N    0.094560    0.539200    0.341179
N    N    0.905440    0.460800    0.341180
H    H    0.080930    0.574430    0.410580
H    H    0.919070    0.425570    0.410580
H    H    0.073546    0.486849    0.399879
H    H    0.042532    0.450958    0.289279
H    H    0.042042    0.453107    0.521411
H    H    0.926454    0.513151    0.399879
H    H    0.957468    0.549042    0.289279
H    H    0.957958    0.546893    0.521411
C    C    0.467390    0.419910    0.900800
C    C    0.532610    0.580090    0.900800
C    C    0.451920    0.524410    0.881791
C    C    0.548080    0.475590    0.881791
C    C    0.476690    0.512460    0.884220
C    C    0.523310    0.487540    0.884220
C    C    0.464210    0.477510    0.886920
C    C    0.535790    0.522490    0.886920
C    C    0.485910    0.464230    0.887360
C    C    0.514090    0.535770    0.887360
H    H    0.437100    0.460200    0.888640
H    H    0.562900    0.539800    0.888640
N    N    0.460800    0.555360    0.841179
N    N    0.539200    0.444640    0.841180
H    H    0.425570    0.506500    0.910580
H    H    0.574430    0.493500    0.910580
H    H    0.513151    0.586697    0.899879
H    H    0.549042    0.591574    0.789279
H    H    0.546893    0.588935    0.021411
H    H    0.486849    0.413303    0.899879
H    H    0.450958    0.408426    0.789279
H    H    0.453107    0.411065    0.021411
C    C    0.419910    0.952520    0.900800
C    C    0.580090    0.047480    0.900800
C    C    0.524410    0.072490    0.881791
C    C    0.475590    0.927510    0.881791
C    C    0.512460    0.035770    0.884220
C    C    0.487540    0.964230    0.884220
C    C    0.477510    0.013300    0.886920
C    C    0.522490    0.986700    0.886920
C    C    0.464230    0.978320    0.887360
C    C    0.535770    0.021680    0.887360
H    H    0.460200    0.023100    0.888640
H    H    0.539800    0.976900    0.888640
N    N    0.555360    0.094560    0.841179
N    N    0.444640    0.905440    0.841180
H    H    0.506500    0.080930    0.910580
H    H    0.493500    0.919070    0.910580
H    H    0.586697    0.073546    0.899879
H    H    0.591574    0.042532    0.789279
H    H    0.588935    0.042042    0.021411
H    H    0.413303    0.926454    0.899879
H    H    0.408426    0.957468    0.789279
H    H    0.411065    0.957958    0.021411
C    C    0.952520    0.532610    0.900800
C    C    0.047480    0.467390    0.900800
C    C    0.072490    0.548080    0.881791
C    C    0.927510    0.451920    0.881791
C    C    0.035770    0.523310    0.884220
C    C    0.964230    0.476690    0.884220
C    C    0.013300    0.535790    0.886920
C    C    0.986700    0.464210    0.886920
C    C    0.978320    0.514090    0.887360
C    C    0.021680    0.485910    0.887360
H    H    0.023100    0.562900    0.888640
H    H    0.976900    0.437100    0.888640
N    N    0.094560    0.539200    0.841179
N    N    0.905440    0.460800    0.841180
H    H    0.080930    0.574430    0.910580
H    H    0.919070    0.425570    0.910580
H    H    0.073546    0.486849    0.899879
H    H    0.042532    0.450958    0.789279
H    H    0.042042    0.453107    0.021411
H    H    0.926454    0.513151    0.899879
H    H    0.957468    0.549042    0.789279
H    H    0.957958    0.546893    0.021411
