data_crystal
 
_cell_length_a    29.79000
_cell_length_b    29.79000
_cell_length_c    9.44000
_cell_angle_alpha 90.00000
_cell_angle_beta  90.00000
_cell_angle_gamma 120.00000
 
_symmetry_space_group_name_Hall 'P 1'
_symmetry_space_group_name_H-M  'P 1'
 
loop_
_symmetry_equiv_pos_as_xyz
 'x,y,z' 
 
loop_
_atom_site_label
_atom_site_type_symbol
_atom_site_fract_x
_atom_site_fract_y
_atom_site_fract_z
C          C       0.27161   0.13297   0.35573 
C          C       0.86703   0.13864   0.35573 
C          C       0.86136   0.72839   0.35573 
C          C       0.29328   0.10221   0.39489 
C          C       0.89779   0.19107   0.39489 
C          C       0.80893   0.70672   0.39489 
C          C       0.34553   0.11944   0.36673 
C          C       0.88056   0.22609   0.36673 
C          C       0.77391   0.65447   0.36673 
C          C       0.37658   0.16615   0.29526 
C          C       0.83385   0.21043   0.29526 
C          C       0.78957   0.62342   0.29526 
C          C       0.35427   0.19504   0.24461 
C          C       0.80496   0.15923   0.24461 
C          C       0.84077   0.64573   0.24461 
C          C       0.30194   0.17821   0.27694 
C          C       0.82179   0.12373   0.27694 
C          C       0.87627   0.69806   0.27694 
O          O       0.38507   0.23891   0.16020 
O          O       0.76109   0.14616   0.16020 
O          O       0.85384   0.61493   0.16020 
C          C       0.36534   0.27219   0.12288 
C          C       0.72781   0.09315   0.12288 
C          C       0.90685   0.63466   0.12288 
C          C       0.40830   0.32071   0.05165 
C          C       0.67929   0.08759   0.05165 
C          C       0.91241   0.59170   0.05165 
C          C       0.39208   0.36157   0.02363 
C          C       0.63843   0.03051   0.02363 
C          C       0.96949   0.60792   0.02363 
C          C       0.43822   0.41262   0.46749 
C          C       0.58738   0.02560   0.46749 
C          C       0.97440   0.56178   0.46749 
C          C       0.42417   0.45576   0.44583 
C          C       0.54424   0.96841   0.44583 
C          C       0.03159   0.57583   0.44583 
C          C       0.47021   0.50684   0.39277 
C          C       0.49316   0.96337   0.39277 
C          C       0.03663   0.52979   0.39277 
O          O       0.26331   0.05489   0.46408 
O          O       0.94511   0.20842   0.46408 
O          O       0.79158   0.73669   0.46408 
C          C       0.25383   0.00979   0.38685 
C          C       0.99021   0.24404   0.38685 
C          C       0.75596   0.74617   0.38685 
C          C       0.19524   0.97447   0.36969 
C          C       0.02553   0.22077   0.36969 
C          C       0.77923   0.80476   0.36969 
C          C       0.18091   0.92098   0.30918 
C          C       0.07902   0.25993   0.30918 
C          C       0.74007   0.81909   0.30918 
C          C       0.12154   0.88665   0.28956 
C          C       0.11335   0.23489   0.28956 
C          C       0.76511   0.87846   0.28956 
C          C       0.10543   0.83129   0.23691 
C          C       0.16871   0.27414   0.23691 
C          C       0.72586   0.89457   0.23691 
C          C       0.04643   0.79658   0.22095 
C          C       0.20342   0.24985   0.22095 
C          C       0.75015   0.95357   0.22095 
C          C       0.43247   0.18411   0.27559 
C          C       0.81589   0.24836   0.27559 
C          C       0.75164   0.56753   0.27559 
N          N       0.46921   0.23512   0.29320 
N          N       0.76488   0.23409   0.29320 
N          N       0.76591   0.53079   0.29320 
O          O       0.44581   0.15252   0.24789 
O          O       0.84748   0.29329   0.24789 
O          O       0.70671   0.55419   0.24789 
N          N       0.52219   0.25138   0.28184 
N          N       0.74862   0.27081   0.28184 
N          N       0.72919   0.47781   0.28184 
C          C       0.55751   0.29985   0.29168 
C          C       0.70015   0.25766   0.29168 
C          C       0.74234   0.44249   0.29168 
C          C       0.61327   0.31650   0.28580 
C          C       0.68350   0.29677   0.28580 
C          C       0.70323   0.38673   0.28580 
C          C       0.63040   0.28031   0.28556 
C          C       0.71969   0.35009   0.28556 
C          C       0.64991   0.36960   0.28556 
C          C       0.21667   0.11748   0.38600 
C          C       0.88252   0.09919   0.38600 
C          C       0.90081   0.78333   0.38600 
O          O       0.19386   0.13080   0.30465 
O          O       0.86920   0.06306   0.30465 
O          O       0.93694   0.80614   0.30465 
N          N       0.19107   0.08906   0.00224 
N          N       0.91094   0.10201   0.00224 
N          N       0.89799   0.80893   0.00224 
C          C       0.10862   0.03382   0.09989 
C          C       0.96618   0.07480   0.09989 
C          C       0.92520   0.89138   0.09989 
C          C       0.05321   0.01681   0.11052 
C          C       0.98319   0.03640   0.11052 
C          C       0.96360   0.94679   0.11052 
C          C       0.03623   0.05303   0.11143 
C          C       0.94697   0.98320   0.11143 
C          C       0.01680   0.96377   0.11143 
N          N       0.13847   0.07295   0.02097 
N          N       0.92705   0.06552   0.02097 
N          N       0.93448   0.86153   0.02097 
F          F       0.37396   0.37132   0.14713 
F          F       0.62868   0.00264   0.14713 
F          F       0.99736   0.62604   0.14713 
F          F       0.35211   0.34185   0.42649 
F          F       0.65815   0.01026   0.42649 
F          F       0.98974   0.64789   0.42649 
F          F       0.45427   0.40232   0.34102 
F          F       0.59768   0.05195   0.34102 
F          F       0.94805   0.54573   0.34102 
F          F       0.47902   0.43003   0.06157 
F          F       0.56997   0.04899   0.06157 
F          F       0.95101   0.52098   0.06157 
F          F       0.38412   0.43936   0.34984 
F          F       0.56064   0.94476   0.34984 
F          F       0.05524   0.61588   0.34984 
F          F       0.40758   0.46596   0.07152 
F          F       0.53404   0.94162   0.07152 
F          F       0.05838   0.59242   0.07152 
F          F       0.49010   0.49911   0.26989 
F          F       0.50089   0.99099   0.26989 
F          F       0.00901   0.50990   0.26989 
F          F       0.50914   0.52771   0.49259 
F          F       0.47229   0.98143   0.49259 
F          F       0.01857   0.49086   0.49259 
F          F       0.45388   0.54206   0.36658 
F          F       0.45794   0.91182   0.36658 
F          F       0.08818   0.54612   0.36658 
F          F       0.19875   0.89700   0.39986 
F          F       0.10300   0.30175   0.39986 
F          F       0.69825   0.80125   0.39986 
F          F       0.20534   0.92780   0.18063 
F          F       0.07220   0.27754   0.18063 
F          F       0.72246   0.79466   0.18063 
F          F       0.09712   0.88309   0.41626 
F          F       0.11691   0.21403   0.41626 
F          F       0.78597   0.90288   0.41626 
F          F       0.10535   0.91054   0.19347 
F          F       0.08946   0.19481   0.19347 
F          F       0.80519   0.89465   0.19347 
F          F       0.12828   0.83442   0.10803 
F          F       0.16558   0.29386   0.10803 
F          F       0.70614   0.87172   0.10803 
F          F       0.12243   0.80735   0.33034 
F          F       0.19265   0.31508   0.33034 
F          F       0.68492   0.87757   0.33034 
F          F       0.03547   0.74970   0.16229 
F          F       0.25030   0.28577   0.16229 
F          F       0.71423   0.96453   0.16229 
F          F       0.02631   0.81948   0.13438 
F          F       0.18052   0.20683   0.13438 
F          F       0.79317   0.97369   0.13438 
F          F       0.02258   0.78704   0.35103 
F          F       0.21296   0.23554   0.35103 
F          F       0.76446   0.97742   0.35103 
H          H       0.36210   0.09643   0.40320 
H          H       0.90357   0.26567   0.40320 
H          H       0.73433   0.63790   0.40320 
H          H       0.28413   0.20005   0.24107 
H          H       0.79995   0.08408   0.24107 
H          H       0.91592   0.71587   0.24107 
H          H       0.35291   0.28389   0.21972 
H          H       0.71611   0.06902   0.21972 
H          H       0.93098   0.64709   0.21972 
H          H       0.33208   0.25188   0.04934 
H          H       0.74812   0.08020   0.04934 
H          H       0.91980   0.66792   0.04934 
H          H       0.41879   0.30943   0.45069 
H          H       0.69057   0.10936   0.45069 
H          H       0.89064   0.58121   0.45069 
H          H       0.44288   0.33729   0.12129 
H          H       0.66271   0.10559   0.12129 
H          H       0.89441   0.55712   0.12129 
H          H       0.27022   0.98956   0.44775 
H          H       0.01044   0.28066   0.44775 
H          H       0.71934   0.72978   0.44775 
H          H       0.27237   0.01927   0.28085 
H          H       0.98073   0.25310   0.28085 
H          H       0.74690   0.72763   0.28085 
H          H       0.18065   0.99407   0.29908 
H          H       0.00593   0.18658   0.29908 
H          H       0.81342   0.81935   0.29908 
H          H       0.17651   0.96951   0.47415 
H          H       0.03049   0.20700   0.47415 
H          H       0.79300   0.82349   0.47415 
H          H       0.45802   0.26186   0.32297 
H          H       0.73814   0.19616   0.32297 
H          H       0.80384   0.54198   0.32297 
H          H       0.54616   0.32889   0.30586 
H          H       0.67111   0.21727   0.30586 
H          H       0.78273   0.45384   0.30586 
H          H       0.60246   0.23923   0.28731 
H          H       0.76077   0.36323   0.28731 
H          H       0.63677   0.39754   0.28731 
H          H       0.21009   0.07964   0.07877 
H          H       0.92036   0.13045   0.07877 
H          H       0.86955   0.78991   0.07877 
H          H       0.12324   0.01063   0.14736 
H          H       0.98937   0.11261   0.14736 
H          H       0.88739   0.87676   0.14736 
H          H       0.06425   0.09410   0.10874 
H          H       0.90590   0.97015   0.10874 
H          H       0.02985   0.93575   0.10874 
C          C       0.27161   0.13297   0.85573 
C          C       0.86703   0.13864   0.85573 
C          C       0.86136   0.72839   0.85573 
C          C       0.29328   0.10221   0.89489 
C          C       0.89779   0.19107   0.89489 
C          C       0.80893   0.70672   0.89489 
C          C       0.34553   0.11944   0.86673 
C          C       0.88056   0.22609   0.86673 
C          C       0.77391   0.65447   0.86673 
C          C       0.37658   0.16615   0.79526 
C          C       0.83385   0.21043   0.79526 
C          C       0.78957   0.62342   0.79526 
C          C       0.35427   0.19504   0.74461 
C          C       0.80496   0.15923   0.74461 
C          C       0.84077   0.64573   0.74461 
C          C       0.30194   0.17821   0.77694 
C          C       0.82179   0.12373   0.77694 
C          C       0.87627   0.69806   0.77694 
O          O       0.38507   0.23891   0.66020 
O          O       0.76109   0.14616   0.66020 
O          O       0.85384   0.61493   0.66020 
C          C       0.36534   0.27219   0.62288 
C          C       0.72781   0.09315   0.62288 
C          C       0.90685   0.63466   0.62288 
C          C       0.40830   0.32071   0.55164 
C          C       0.67929   0.08759   0.55164 
C          C       0.91241   0.59170   0.55164 
C          C       0.39208   0.36157   0.52363 
C          C       0.63843   0.03051   0.52363 
C          C       0.96949   0.60792   0.52363 
C          C       0.43822   0.41262   0.96749 
C          C       0.58738   0.02560   0.96749 
C          C       0.97440   0.56178   0.96749 
C          C       0.42417   0.45576   0.94583 
C          C       0.54424   0.96841   0.94583 
C          C       0.03159   0.57583   0.94583 
C          C       0.47021   0.50684   0.89277 
C          C       0.49316   0.96337   0.89277 
C          C       0.03663   0.52979   0.89277 
O          O       0.26331   0.05489   0.96409 
O          O       0.94511   0.20842   0.96409 
O          O       0.79158   0.73669   0.96409 
C          C       0.25383   0.00979   0.88685 
C          C       0.99021   0.24404   0.88685 
C          C       0.75596   0.74617   0.88685 
C          C       0.19524   0.97447   0.86969 
C          C       0.02553   0.22077   0.86969 
C          C       0.77923   0.80476   0.86969 
C          C       0.18091   0.92098   0.80918 
C          C       0.07902   0.25993   0.80918 
C          C       0.74007   0.81909   0.80918 
C          C       0.12154   0.88665   0.78956 
C          C       0.11335   0.23489   0.78956 
C          C       0.76511   0.87846   0.78956 
C          C       0.10543   0.83129   0.73691 
C          C       0.16871   0.27414   0.73691 
C          C       0.72586   0.89457   0.73691 
C          C       0.04643   0.79658   0.72096 
C          C       0.20342   0.24985   0.72096 
C          C       0.75015   0.95357   0.72096 
C          C       0.43247   0.18411   0.77559 
C          C       0.81589   0.24836   0.77559 
C          C       0.75164   0.56753   0.77559 
N          N       0.46921   0.23512   0.79320 
N          N       0.76488   0.23409   0.79320 
N          N       0.76591   0.53079   0.79320 
O          O       0.44581   0.15252   0.74788 
O          O       0.84748   0.29329   0.74788 
O          O       0.70671   0.55419   0.74788 
N          N       0.52219   0.25138   0.78184 
N          N       0.74862   0.27081   0.78184 
N          N       0.72919   0.47781   0.78184 
C          C       0.55751   0.29985   0.79168 
C          C       0.70015   0.25766   0.79168 
C          C       0.74234   0.44249   0.79168 
C          C       0.61327   0.31650   0.78580 
C          C       0.68350   0.29677   0.78580 
C          C       0.70323   0.38673   0.78580 
C          C       0.63040   0.28031   0.78556 
C          C       0.71969   0.35009   0.78556 
C          C       0.64991   0.36960   0.78556 
C          C       0.21667   0.11748   0.88600 
C          C       0.88252   0.09919   0.88600 
C          C       0.90081   0.78333   0.88600 
O          O       0.19386   0.13080   0.80465 
O          O       0.86920   0.06306   0.80465 
O          O       0.93694   0.80614   0.80465 
N          N       0.19107   0.08906   0.50224 
N          N       0.91094   0.10201   0.50224 
N          N       0.89799   0.80893   0.50224 
C          C       0.10862   0.03382   0.59989 
C          C       0.96618   0.07480   0.59989 
C          C       0.92520   0.89138   0.59989 
C          C       0.05321   0.01681   0.61052 
C          C       0.98319   0.03640   0.61052 
C          C       0.96360   0.94679   0.61052 
C          C       0.03623   0.05303   0.61143 
C          C       0.94697   0.98320   0.61143 
C          C       0.01680   0.96377   0.61143 
N          N       0.13847   0.07295   0.52097 
N          N       0.92705   0.06552   0.52097 
N          N       0.93448   0.86153   0.52097 
F          F       0.37396   0.37132   0.64714 
F          F       0.62868   0.00264   0.64714 
F          F       0.99736   0.62604   0.64714 
F          F       0.35211   0.34185   0.92649 
F          F       0.65815   0.01026   0.92649 
F          F       0.98974   0.64789   0.92649 
F          F       0.45427   0.40232   0.84101 
F          F       0.59768   0.05195   0.84101 
F          F       0.94805   0.54573   0.84101 
F          F       0.47902   0.43003   0.56157 
F          F       0.56997   0.04899   0.56157 
F          F       0.95101   0.52098   0.56157 
F          F       0.38412   0.43936   0.84984 
F          F       0.56064   0.94476   0.84984 
F          F       0.05524   0.61588   0.84984 
F          F       0.40758   0.46596   0.57152 
F          F       0.53404   0.94162   0.57152 
F          F       0.05838   0.59242   0.57152 
F          F       0.49010   0.49911   0.76989 
F          F       0.50089   0.99099   0.76989 
F          F       0.00901   0.50990   0.76989 
F          F       0.50914   0.52771   0.99259 
F          F       0.47229   0.98143   0.99259 
F          F       0.01857   0.49086   0.99259 
F          F       0.45388   0.54206   0.86658 
F          F       0.45794   0.91182   0.86658 
F          F       0.08818   0.54612   0.86658 
F          F       0.19875   0.89700   0.89986 
F          F       0.10300   0.30175   0.89986 
F          F       0.69825   0.80125   0.89986 
F          F       0.20534   0.92780   0.68063 
F          F       0.07220   0.27754   0.68063 
F          F       0.72246   0.79466   0.68063 
F          F       0.09712   0.88309   0.91626 
F          F       0.11691   0.21403   0.91626 
F          F       0.78597   0.90288   0.91626 
F          F       0.10535   0.91054   0.69347 
F          F       0.08946   0.19481   0.69347 
F          F       0.80519   0.89465   0.69347 
F          F       0.12828   0.83442   0.60803 
F          F       0.16558   0.29386   0.60803 
F          F       0.70614   0.87172   0.60803 
F          F       0.12243   0.80735   0.83034 
F          F       0.19265   0.31508   0.83034 
F          F       0.68492   0.87757   0.83034 
F          F       0.03547   0.74970   0.66229 
F          F       0.25030   0.28577   0.66229 
F          F       0.71423   0.96453   0.66229 
F          F       0.02631   0.81948   0.63438 
F          F       0.18052   0.20683   0.63438 
F          F       0.79317   0.97369   0.63438 
F          F       0.02258   0.78704   0.85103 
F          F       0.21296   0.23554   0.85103 
F          F       0.76446   0.97742   0.85103 
H          H       0.36210   0.09643   0.90320 
H          H       0.90357   0.26567   0.90320 
H          H       0.73433   0.63790   0.90320 
H          H       0.28413   0.20005   0.74107 
H          H       0.79995   0.08408   0.74107 
H          H       0.91592   0.71587   0.74107 
H          H       0.35291   0.28389   0.71972 
H          H       0.71611   0.06902   0.71972 
H          H       0.93098   0.64709   0.71972 
H          H       0.33208   0.25188   0.54934 
H          H       0.74812   0.08020   0.54934 
H          H       0.91980   0.66792   0.54934 
H          H       0.41879   0.30943   0.95069 
H          H       0.69057   0.10936   0.95069 
H          H       0.89064   0.58121   0.95069 
H          H       0.44288   0.33729   0.62129 
H          H       0.66271   0.10559   0.62129 
H          H       0.89441   0.55712   0.62129 
H          H       0.27022   0.98956   0.94775 
H          H       0.01044   0.28066   0.94775 
H          H       0.71934   0.72978   0.94775 
H          H       0.27237   0.01927   0.78085 
H          H       0.98073   0.25310   0.78085 
H          H       0.74690   0.72763   0.78085 
H          H       0.18065   0.99407   0.79908 
H          H       0.00593   0.18658   0.79908 
H          H       0.81342   0.81935   0.79908 
H          H       0.17651   0.96951   0.97415 
H          H       0.03049   0.20700   0.97415 
H          H       0.79300   0.82349   0.97415 
H          H       0.45802   0.26186   0.82297 
H          H       0.73814   0.19616   0.82297 
H          H       0.80384   0.54198   0.82297 
H          H       0.54616   0.32889   0.80587 
H          H       0.67111   0.21727   0.80587 
H          H       0.78273   0.45384   0.80587 
H          H       0.60246   0.23923   0.78731 
H          H       0.76077   0.36323   0.78731 
H          H       0.63677   0.39754   0.78731 
H          H       0.21009   0.07964   0.57877 
H          H       0.92036   0.13045   0.57877 
H          H       0.86955   0.78991   0.57877 
H          H       0.12324   0.01063   0.64736 
H          H       0.98937   0.11261   0.64736 
H          H       0.88739   0.87676   0.64736 
H          H       0.06425   0.09410   0.60874 
H          H       0.90590   0.97015   0.60874 
H          H       0.02985   0.93575   0.60874 
