data_crystal
 
_cell_length_a    35.81800
_cell_length_b    35.81800
_cell_length_c    10.52100
_cell_angle_alpha 90.00000
_cell_angle_beta  90.00000
_cell_angle_gamma 90.00000
 
_symmetry_space_group_name_Hall 'P 1'
_symmetry_space_group_name_H-M  'P 1'
 
loop_
_symmetry_equiv_pos_as_xyz
 'x,y,z' 
 
loop_
_atom_site_label
_atom_site_type_symbol
_atom_site_fract_x
_atom_site_fract_y
_atom_site_fract_z
C          C       0.97914   0.39125   0.13859 
C          C       0.02086   0.60875   0.13859 
C          C       0.60875   0.97914   0.13859 
C          C       0.39125   0.02086   0.13859 
C          C       0.01760   0.39055   0.14069 
C          C       0.98240   0.60945   0.14069 
C          C       0.60945   0.01760   0.14069 
C          C       0.39055   0.98240   0.14069 
C          C       0.96784   0.42515   0.08798 
C          C       0.03216   0.57485   0.08798 
C          C       0.57485   0.96784   0.08798 
C          C       0.42515   0.03216   0.08798 
C          C       0.06775   0.43134   0.05398 
C          C       0.93225   0.56866   0.05398 
C          C       0.56866   0.06775   0.05398 
C          C       0.43134   0.93225   0.05398 
C          C       0.09359   0.39924   0.03481 
C          C       0.90641   0.60076   0.03481 
C          C       0.60076   0.09359   0.03481 
C          C       0.39924   0.90641   0.03481 
C          C       0.08187   0.36928   0.45867 
C          C       0.91813   0.63072   0.45867 
C          C       0.63072   0.08187   0.45867 
C          C       0.36928   0.91813   0.45867 
C          C       0.10383   0.33758   0.44625 
C          C       0.89617   0.66242   0.44625 
C          C       0.66242   0.10383   0.44625 
C          C       0.33758   0.89617   0.44625 
C          C       0.13841   0.33550   0.00644 
C          C       0.86159   0.66450   0.00644 
C          C       0.66450   0.13841   0.00644 
C          C       0.33550   0.86159   0.00644 
C          C       0.15162   0.36560   0.08198 
C          C       0.84838   0.63440   0.08198 
C          C       0.63440   0.15162   0.08198 
C          C       0.36560   0.84838   0.08198 
C          C       0.12869   0.39758   0.09509 
C          C       0.87131   0.60242   0.09509 
C          C       0.60242   0.12869   0.09509 
C          C       0.39758   0.87131   0.09509 
N          N       0.15993   0.30488   0.48717 
N          N       0.84007   0.69512   0.48717 
N          N       0.69512   0.15993   0.48717 
N          N       0.30488   0.84007   0.48717 
C          C       0.19463   0.30168   0.03696 
C          C       0.80537   0.69832   0.03696 
C          C       0.69832   0.19463   0.03696 
C          C       0.30168   0.80537   0.03696 
C          C       0.20883   0.33013   0.11355 
C          C       0.79117   0.66987   0.11355 
C          C       0.66987   0.20883   0.11355 
C          C       0.33013   0.79117   0.11355 
C          C       0.18793   0.36261   0.13608 
C          C       0.81207   0.63739   0.13608 
C          C       0.63739   0.18793   0.13608 
C          C       0.36261   0.81207   0.13608 
C          C       0.21727   0.26841   0.00880 
C          C       0.78273   0.73159   0.00880 
C          C       0.73159   0.21727   0.00880 
C          C       0.26841   0.78273   0.00880 
C          C       0.20361   0.23327   0.04451 
C          C       0.79639   0.76673   0.04451 
C          C       0.76673   0.20361   0.04451 
C          C       0.23327   0.79639   0.04451 
C          C       0.22555   0.20117   0.03174 
C          C       0.77445   0.79883   0.03174 
C          C       0.79883   0.22555   0.03174 
C          C       0.20117   0.77445   0.03174 
C          C       0.26208   0.20438   0.48174 
C          C       0.73792   0.79562   0.48174 
C          C       0.79562   0.26208   0.48174 
C          C       0.20438   0.73792   0.48174 
C          C       0.27518   0.23935   0.44201 
C          C       0.72482   0.76065   0.44201 
C          C       0.76065   0.27518   0.44201 
C          C       0.23935   0.72482   0.44201 
C          C       0.25306   0.27125   0.45293 
C          C       0.74694   0.72875   0.45293 
C          C       0.72875   0.25306   0.45293 
C          C       0.27125   0.74694   0.45293 
C          C       0.28867   0.17311   0.47989 
C          C       0.71133   0.82689   0.47989 
C          C       0.82689   0.28867   0.47989 
C          C       0.17311   0.71133   0.47989 
C          C       0.28443   0.14289   0.39693 
C          C       0.71557   0.85711   0.39693 
C          C       0.85711   0.28443   0.39693 
C          C       0.14289   0.71557   0.39693 
C          C       0.31188   0.11459   0.39069 
C          C       0.68812   0.88541   0.39069 
C          C       0.88541   0.31188   0.39069 
C          C       0.11459   0.68812   0.39069 
C          C       0.34428   0.11852   0.46840 
C          C       0.65572   0.88148   0.46840 
C          C       0.88148   0.34428   0.46840 
C          C       0.11852   0.65572   0.46840 
C          C       0.34571   0.14840   0.05684 
C          C       0.65429   0.85160   0.05684 
C          C       0.85160   0.34571   0.05684 
C          C       0.14840   0.65429   0.05684 
N          N       0.31861   0.17470   0.05812 
N          N       0.68139   0.82530   0.05812 
N          N       0.82530   0.31861   0.05812 
N          N       0.17470   0.68139   0.05812 
C          C       0.37524   0.09431   0.46176 
C          C       0.62476   0.90569   0.46176 
C          C       0.90569   0.37524   0.46176 
C          C       0.09431   0.62476   0.46176 
C          C       0.40438   0.09715   0.05060 
C          C       0.59562   0.90285   0.05060 
C          C       0.90285   0.40438   0.05060 
C          C       0.09715   0.59562   0.05060 
C          C       0.40343   0.12487   0.14394 
C          C       0.59657   0.87513   0.14394 
C          C       0.87513   0.40343   0.14394 
C          C       0.12487   0.59657   0.14394 
C          C       0.37480   0.15105   0.14466 
C          C       0.62520   0.84895   0.14466 
C          C       0.84895   0.37480   0.14466 
C          C       0.15105   0.62520   0.14466 
C          C       0.42394   0.96944   0.09018 
C          C       0.57606   0.03056   0.09018 
C          C       0.03056   0.42394   0.09018 
C          C       0.96944   0.57606   0.09018 
N          N       0.44728   0.00032   0.05867 
N          N       0.55272   0.99968   0.05867 
N          N       0.99968   0.44728   0.05867 
N          N       0.00032   0.55272   0.05867 
C          C       0.52104   0.11239   0.47143 
C          C       0.47896   0.88761   0.47143 
C          C       0.88761   0.52104   0.47143 
C          C       0.11239   0.47896   0.47143 
C          C       0.48257   0.11275   0.47157 
C          C       0.51743   0.88725   0.47157 
C          C       0.88725   0.48257   0.47157 
C          C       0.11275   0.51743   0.47157 
C          C       0.47141   0.07971   0.02842 
C          C       0.52859   0.92029   0.02842 
C          C       0.92029   0.47141   0.02842 
C          C       0.07971   0.52859   0.02842 
N          N       0.50139   0.05949   0.06371 
N          N       0.49861   0.94051   0.06371 
N          N       0.94051   0.50139   0.06371 
N          N       0.05949   0.49861   0.06371 
C          C       0.53176   0.07940   0.02945 
C          C       0.46824   0.92060   0.02945 
C          C       0.92060   0.53176   0.02945 
C          C       0.07940   0.46824   0.02945 
C          C       0.43437   0.06894   0.05356 
C          C       0.56563   0.93106   0.05356 
C          C       0.93106   0.43437   0.05356 
C          C       0.06894   0.56563   0.05356 
C          C       0.20619   0.39251   0.21170 
C          C       0.79381   0.60749   0.21170 
C          C       0.60749   0.20619   0.21170 
C          C       0.39251   0.79381   0.21170 
C          C       0.24268   0.40394   0.18102 
C          C       0.75732   0.59606   0.18102 
C          C       0.59606   0.24268   0.18102 
C          C       0.40394   0.75732   0.18102 
C          C       0.26136   0.43003   0.25631 
C          C       0.73864   0.56997   0.25631 
C          C       0.56997   0.26136   0.25631 
C          C       0.43003   0.73864   0.25631 
C          C       0.24381   0.44540   0.36324 
C          C       0.75619   0.55460   0.36324 
C          C       0.55460   0.24381   0.36324 
C          C       0.44540   0.75619   0.36324 
C          C       0.20777   0.43343   0.39576 
C          C       0.79223   0.56657   0.39576 
C          C       0.56657   0.20777   0.39576 
C          C       0.43343   0.79223   0.39576 
C          C       0.18913   0.40720   0.32055 
C          C       0.81087   0.59280   0.32055 
C          C       0.59280   0.18913   0.32055 
C          C       0.40720   0.81087   0.32055 
C          C       0.26299   0.47528   0.44011 
C          C       0.73701   0.52472   0.44011 
C          C       0.52472   0.26299   0.44011 
C          C       0.47528   0.73701   0.44011 
N          N       0.27565   0.50593   0.35848 
N          N       0.72435   0.49407   0.35848 
N          N       0.49407   0.27565   0.35848 
N          N       0.50593   0.72435   0.35848 
C          C       0.31118   0.51831   0.34552 
C          C       0.68882   0.48169   0.34552 
C          C       0.48169   0.31118   0.34552 
C          C       0.51831   0.68882   0.34552 
N          N       0.31593   0.54501   0.25383 
N          N       0.68407   0.45499   0.25383 
N          N       0.45499   0.31593   0.25383 
N          N       0.54501   0.68407   0.25383 
C          C       0.28034   0.54871   0.20982 
C          C       0.71966   0.45129   0.20982 
C          C       0.45129   0.28034   0.20982 
C          C       0.54871   0.71966   0.20982 
C          C       0.25625   0.52572   0.27323 
C          C       0.74375   0.47428   0.27323 
C          C       0.47428   0.25625   0.27323 
C          C       0.52572   0.74375   0.27323 
C          C       0.34184   0.53140   0.15585 
C          C       0.65816   0.46860   0.15585 
C          C       0.46860   0.34184   0.15585 
C          C       0.53140   0.65816   0.15585 
C          C       0.26773   0.57170   0.11092 
C          C       0.73227   0.42830   0.11092 
C          C       0.42830   0.26773   0.11092 
C          C       0.57170   0.73227   0.11092 
C          C       0.22997   0.56946   0.07556 
C          C       0.77003   0.43054   0.07556 
C          C       0.43054   0.22997   0.07556 
C          C       0.56946   0.77003   0.07556 
C          C       0.20557   0.54512   0.14034 
C          C       0.79443   0.45488   0.14034 
C          C       0.45488   0.20557   0.14034 
C          C       0.54512   0.79443   0.14034 
C          C       0.21843   0.52337   0.24219 
C          C       0.78157   0.47663   0.24219 
C          C       0.47663   0.21843   0.24219 
C          C       0.52337   0.78157   0.24219 
Br         Br      0.33315   0.59033   0.32699 
Br         Br      0.66685   0.40967   0.32699 
Br         Br      0.40967   0.33315   0.32699 
Br         Br      0.59033   0.66685   0.32699 
C          C       0.30389   0.08081   0.31041 
C          C       0.69611   0.91919   0.31041 
C          C       0.91919   0.30389   0.31041 
C          C       0.08081   0.69611   0.31041 
C          C       0.28443   0.08478   0.19504 
C          C       0.71557   0.91522   0.19504 
C          C       0.91522   0.28443   0.19504 
C          C       0.08478   0.71557   0.19504 
C          C       0.27218   0.05365   0.12707 
C          C       0.72782   0.94635   0.12707 
C          C       0.94635   0.27218   0.12707 
C          C       0.05365   0.72782   0.12707 
C          C       0.28022   0.01755   0.17011 
C          C       0.71978   0.98245   0.17011 
C          C       0.98245   0.28022   0.17011 
C          C       0.01755   0.71978   0.17011 
C          C       0.30005   0.01308   0.28385 
C          C       0.69995   0.98692   0.28385 
C          C       0.98692   0.30005   0.28385 
C          C       0.01308   0.69995   0.28385 
C          C       0.31139   0.04431   0.35394 
C          C       0.68861   0.95569   0.35394 
C          C       0.95569   0.31139   0.35394 
C          C       0.04431   0.68861   0.35394 
C          C       0.26573   0.98397   0.09927 
C          C       0.73427   0.01603   0.09927 
C          C       0.01603   0.26573   0.09927 
C          C       0.98397   0.73427   0.09927 
N          N       0.23195   0.97008   0.16141 
N          N       0.76805   0.02992   0.16141 
N          N       0.02992   0.23195   0.16141 
N          N       0.97008   0.76805   0.16141 
C          C       0.19939   0.98894   0.17373 
C          C       0.80061   0.01106   0.17373 
C          C       0.01106   0.19939   0.17373 
C          C       0.98894   0.80061   0.17373 
N          N       0.17289   0.97109   0.24482 
N          N       0.82711   0.02891   0.24482 
N          N       0.02891   0.17289   0.24482 
N          N       0.97109   0.82711   0.24482 
C          C       0.19135   0.93915   0.27682 
C          C       0.80865   0.06085   0.27682 
C          C       0.06085   0.19135   0.27682 
C          C       0.93915   0.80865   0.27682 
C          C       0.22632   0.93817   0.22450 
C          C       0.77368   0.06183   0.22450 
C          C       0.06183   0.22632   0.22450 
C          C       0.93817   0.77368   0.22450 
C          C       0.13899   0.96337   0.17028 
C          C       0.86101   0.03663   0.17028 
C          C       0.03663   0.13899   0.17028 
C          C       0.96337   0.86101   0.17028 
C          C       0.17762   0.90884   0.34681 
C          C       0.82238   0.09116   0.34681 
C          C       0.09116   0.17762   0.34681 
C          C       0.90884   0.82238   0.34681 
C          C       0.20043   0.87716   0.35985 
C          C       0.79957   0.12284   0.35985 
C          C       0.12284   0.20043   0.35985 
C          C       0.87716   0.79957   0.35985 
C          C       0.23617   0.87620   0.30369 
C          C       0.76383   0.12380   0.30369 
C          C       0.12380   0.23617   0.30369 
C          C       0.87620   0.76383   0.30369 
C          C       0.24967   0.90710   0.23546 
C          C       0.75033   0.09290   0.23546 
C          C       0.09290   0.24967   0.23546 
C          C       0.90710   0.75033   0.23546 
Br         Br      0.16180   0.00156   0.38660 
Br         Br      0.83820   0.99844   0.38660 
Br         Br      0.99844   0.16180   0.38660 
Br         Br      0.00156   0.83820   0.38660 
O          O       0.21061   0.16735   0.07468 
O          O       0.78939   0.83265   0.07468 
O          O       0.83265   0.21061   0.07468 
O          O       0.16735   0.78939   0.07468 
O          O       0.26754   0.30492   0.40661 
O          O       0.73246   0.69508   0.40661 
O          O       0.69508   0.26754   0.40661 
O          O       0.30492   0.73246   0.40661 
H          H       0.05523   0.37026   0.41004 
H          H       0.94477   0.62974   0.41004 
H          H       0.62974   0.05523   0.41004 
H          H       0.37026   0.94477   0.41004 
H          H       0.09398   0.31469   0.38831 
H          H       0.90602   0.68531   0.38831 
H          H       0.68531   0.09398   0.38831 
H          H       0.31469   0.90602   0.38831 
H          H       0.13770   0.42135   0.15032 
H          H       0.86230   0.57865   0.15032 
H          H       0.57865   0.13770   0.15032 
H          H       0.42135   0.86230   0.15032 
H          H       0.23644   0.32704   0.15446 
H          H       0.76356   0.67296   0.15446 
H          H       0.67296   0.23644   0.15446 
H          H       0.32704   0.76356   0.15446 
H          H       0.17612   0.23091   0.08671 
H          H       0.82388   0.76909   0.08671 
H          H       0.76909   0.17612   0.08671 
H          H       0.23091   0.82388   0.08671 
H          H       0.30303   0.24193   0.40258 
H          H       0.69697   0.75807   0.40258 
H          H       0.75807   0.30303   0.40258 
H          H       0.24193   0.69697   0.40258 
H          H       0.25930   0.14134   0.34000 
H          H       0.74070   0.85866   0.34000 
H          H       0.85866   0.25930   0.34000 
H          H       0.14134   0.74070   0.34000 
H          H       0.37721   0.07315   0.38878 
H          H       0.62279   0.92685   0.38878 
H          H       0.92685   0.37721   0.38878 
H          H       0.07315   0.62279   0.38878 
H          H       0.42507   0.12630   0.21574 
H          H       0.57493   0.87370   0.21574 
H          H       0.87370   0.42507   0.21574 
H          H       0.12630   0.57493   0.21574 
H          H       0.37495   0.17313   0.21502 
H          H       0.62505   0.82687   0.21502 
H          H       0.82687   0.37495   0.21502 
H          H       0.17313   0.62505   0.21502 
H          H       0.46779   0.99989   0.48838 
H          H       0.53221   0.00011   0.48838 
H          H       0.00011   0.46779   0.48838 
H          H       0.99989   0.53221   0.48838 
H          H       0.25672   0.39265   0.09832 
H          H       0.74328   0.60735   0.09832 
H          H       0.60735   0.25672   0.09832 
H          H       0.39265   0.74328   0.09832 
H          H       0.28929   0.43870   0.23016 
H          H       0.71071   0.56130   0.23016 
H          H       0.56130   0.28929   0.23016 
H          H       0.43870   0.71071   0.23016 
H          H       0.19420   0.44441   0.47965 
H          H       0.80580   0.55559   0.47965 
H          H       0.55559   0.19420   0.47965 
H          H       0.44441   0.80580   0.47965 
H          H       0.28721   0.46260   0.48999 
H          H       0.71279   0.53740   0.48999 
H          H       0.53740   0.28721   0.48999 
H          H       0.46260   0.71279   0.48999 
H          H       0.24397   0.48659   0.01374 
H          H       0.75603   0.51341   0.01374 
H          H       0.51341   0.24397   0.01374 
H          H       0.48659   0.75603   0.01374 
H          H       0.33230   0.50425   0.11579 
H          H       0.66770   0.49575   0.11579 
H          H       0.49575   0.33230   0.11579 
H          H       0.50425   0.66770   0.11579 
H          H       0.37015   0.52721   0.19696 
H          H       0.62985   0.47279   0.19696 
H          H       0.47279   0.37015   0.19696 
H          H       0.52721   0.62985   0.19696 
H          H       0.34459   0.55213   0.07803 
H          H       0.65541   0.44787   0.07803 
H          H       0.44787   0.34459   0.07803 
H          H       0.55213   0.65541   0.07803 
H          H       0.28653   0.59033   0.06168 
H          H       0.71347   0.40967   0.06168 
H          H       0.40967   0.28653   0.06168 
H          H       0.59033   0.71347   0.06168 
H          H       0.21963   0.58623   0.49755 
H          H       0.78037   0.41377   0.49755 
H          H       0.41377   0.21963   0.49755 
H          H       0.58623   0.78037   0.49755 
H          H       0.17690   0.54272   0.11056 
H          H       0.82310   0.45728   0.11056 
H          H       0.45728   0.17690   0.11056 
H          H       0.54272   0.82310   0.11056 
H          H       0.19953   0.50508   0.29248 
H          H       0.80047   0.49492   0.29248 
H          H       0.49492   0.19953   0.29248 
H          H       0.50508   0.80047   0.29248 
H          H       0.27791   0.11212   0.15836 
H          H       0.72209   0.88788   0.15836 
H          H       0.88788   0.27791   0.15836 
H          H       0.11212   0.72209   0.15836 
H          H       0.25602   0.05780   0.04124 
H          H       0.74398   0.94220   0.04124 
H          H       0.94220   0.25602   0.04124 
H          H       0.05780   0.74398   0.04124 
H          H       0.30599   0.98537   0.31982 
H          H       0.69401   0.01463   0.31982 
H          H       0.01463   0.30599   0.31982 
H          H       0.98537   0.69401   0.31982 
H          H       0.28775   0.96220   0.09524 
H          H       0.71225   0.03780   0.09524 
H          H       0.03780   0.28775   0.09524 
H          H       0.96220   0.71225   0.09524 
H          H       0.25873   0.99135   0.49958 
H          H       0.74127   0.00865   0.49958 
H          H       0.00865   0.25873   0.49958 
H          H       0.99135   0.74127   0.49958 
H          H       0.14515   0.94528   0.08686 
H          H       0.85485   0.05472   0.08686 
H          H       0.05472   0.14515   0.08686 
H          H       0.94528   0.85485   0.08686 
H          H       0.12613   0.98987   0.13683 
H          H       0.87387   0.01013   0.13683 
H          H       0.01013   0.12613   0.13683 
H          H       0.98987   0.87387   0.13683 
H          H       0.11782   0.94895   0.22997 
H          H       0.88218   0.05105   0.22997 
H          H       0.05105   0.11782   0.22997 
H          H       0.94895   0.88218   0.22997 
H          H       0.14988   0.90928   0.38742 
H          H       0.85012   0.09072   0.38742 
H          H       0.09072   0.14988   0.38742 
H          H       0.90928   0.85012   0.38742 
H          H       0.19015   0.85314   0.41127 
H          H       0.80985   0.14686   0.41127 
H          H       0.14686   0.19015   0.41127 
H          H       0.85314   0.80985   0.41127 
H          H       0.25305   0.85128   0.31130 
H          H       0.74695   0.14872   0.31130 
H          H       0.14872   0.25305   0.31130 
H          H       0.85128   0.74695   0.31130 
H          H       0.27685   0.90610   0.19089 
H          H       0.72315   0.09390   0.19089 
H          H       0.09390   0.27685   0.19089 
H          H       0.90610   0.72315   0.19089 
H          H       0.96119   0.36843   0.16634 
H          H       0.03881   0.63157   0.16634 
H          H       0.63157   0.96119   0.16634 
H          H       0.36843   0.03881   0.16634 
H          H       0.03435   0.36699   0.17067 
H          H       0.96565   0.63301   0.17067 
H          H       0.63301   0.03435   0.17067 
H          H       0.36699   0.96565   0.17067 
H          H       0.53897   0.13337   0.43063 
H          H       0.46103   0.86663   0.43063 
H          H       0.86663   0.53897   0.43063 
H          H       0.13337   0.46103   0.43063 
H          H       0.46489   0.13434   0.43217 
H          H       0.53511   0.86566   0.43217 
H          H       0.86566   0.46489   0.43217 
H          H       0.13434   0.53511   0.43217 
H          H       0.16146   0.39818   0.34725 
H          H       0.83854   0.60182   0.34725 
H          H       0.60182   0.16146   0.34725 
H          H       0.39818   0.83854   0.34725 
H          H       0.33439   0.50601   0.39644 
H          H       0.66561   0.49399   0.39644 
H          H       0.49399   0.33439   0.39644 
H          H       0.50601   0.66561   0.39644 
H          H       0.32496   0.03959   0.44424 
H          H       0.67504   0.96041   0.44424 
H          H       0.96041   0.32496   0.44424 
H          H       0.03959   0.67504   0.44424 
H          H       0.19558   0.01696   0.13688 
H          H       0.80442   0.98304   0.13688 
H          H       0.98304   0.19558   0.13688 
H          H       0.01696   0.80442   0.13688 
H          H       0.22744   0.14494   0.06434 
H          H       0.77256   0.85506   0.06434 
H          H       0.85506   0.22744   0.06434 
H          H       0.14494   0.77256   0.06434 
H          H       0.24899   0.32616   0.40134 
H          H       0.75101   0.67384   0.40134 
H          H       0.67384   0.24899   0.40134 
H          H       0.32616   0.75101   0.40134 
C          C       0.97914   0.39125   0.63859 
C          C       0.02086   0.60875   0.63859 
C          C       0.60875   0.97914   0.63859 
C          C       0.39125   0.02086   0.63859 
C          C       0.01760   0.39055   0.64069 
C          C       0.98240   0.60945   0.64069 
C          C       0.60945   0.01760   0.64069 
C          C       0.39055   0.98240   0.64069 
C          C       0.96784   0.42515   0.58798 
C          C       0.03216   0.57485   0.58798 
C          C       0.57485   0.96784   0.58798 
C          C       0.42515   0.03216   0.58798 
C          C       0.06775   0.43134   0.55398 
C          C       0.93225   0.56866   0.55398 
C          C       0.56866   0.06775   0.55398 
C          C       0.43134   0.93225   0.55398 
C          C       0.09359   0.39924   0.53480 
C          C       0.90641   0.60076   0.53480 
C          C       0.60076   0.09359   0.53480 
C          C       0.39924   0.90641   0.53480 
C          C       0.08187   0.36928   0.95867 
C          C       0.91813   0.63072   0.95867 
C          C       0.63072   0.08187   0.95867 
C          C       0.36928   0.91813   0.95867 
C          C       0.10383   0.33758   0.94625 
C          C       0.89617   0.66242   0.94625 
C          C       0.66242   0.10383   0.94625 
C          C       0.33758   0.89617   0.94625 
C          C       0.13841   0.33550   0.50644 
C          C       0.86159   0.66450   0.50644 
C          C       0.66450   0.13841   0.50644 
C          C       0.33550   0.86159   0.50644 
C          C       0.15162   0.36560   0.58198 
C          C       0.84838   0.63440   0.58198 
C          C       0.63440   0.15162   0.58198 
C          C       0.36560   0.84838   0.58198 
C          C       0.12869   0.39758   0.59509 
C          C       0.87131   0.60242   0.59509 
C          C       0.60242   0.12869   0.59509 
C          C       0.39758   0.87131   0.59509 
N          N       0.15993   0.30488   0.98716 
N          N       0.84007   0.69512   0.98716 
N          N       0.69512   0.15993   0.98716 
N          N       0.30488   0.84007   0.98716 
C          C       0.19463   0.30168   0.53697 
C          C       0.80537   0.69832   0.53697 
C          C       0.69832   0.19463   0.53697 
C          C       0.30168   0.80537   0.53697 
C          C       0.20883   0.33013   0.61355 
C          C       0.79117   0.66987   0.61355 
C          C       0.66987   0.20883   0.61355 
C          C       0.33013   0.79117   0.61355 
C          C       0.18793   0.36261   0.63608 
C          C       0.81207   0.63739   0.63608 
C          C       0.63739   0.18793   0.63608 
C          C       0.36261   0.81207   0.63608 
C          C       0.21727   0.26841   0.50880 
C          C       0.78273   0.73159   0.50880 
C          C       0.73159   0.21727   0.50880 
C          C       0.26841   0.78273   0.50880 
C          C       0.20361   0.23327   0.54451 
C          C       0.79639   0.76673   0.54451 
C          C       0.76673   0.20361   0.54451 
C          C       0.23327   0.79639   0.54451 
C          C       0.22555   0.20117   0.53174 
C          C       0.77445   0.79883   0.53174 
C          C       0.79883   0.22555   0.53174 
C          C       0.20117   0.77445   0.53174 
C          C       0.26208   0.20438   0.98174 
C          C       0.73792   0.79562   0.98174 
C          C       0.79562   0.26208   0.98174 
C          C       0.20438   0.73792   0.98174 
C          C       0.27518   0.23935   0.94202 
C          C       0.72482   0.76065   0.94202 
C          C       0.76065   0.27518   0.94202 
C          C       0.23935   0.72482   0.94202 
C          C       0.25306   0.27125   0.95293 
C          C       0.74694   0.72875   0.95293 
C          C       0.72875   0.25306   0.95293 
C          C       0.27125   0.74694   0.95293 
C          C       0.28867   0.17311   0.97989 
C          C       0.71133   0.82689   0.97989 
C          C       0.82689   0.28867   0.97989 
C          C       0.17311   0.71133   0.97989 
C          C       0.28443   0.14289   0.89693 
C          C       0.71557   0.85711   0.89693 
C          C       0.85711   0.28443   0.89693 
C          C       0.14289   0.71557   0.89693 
C          C       0.31188   0.11459   0.89068 
C          C       0.68812   0.88541   0.89068 
C          C       0.88541   0.31188   0.89068 
C          C       0.11459   0.68812   0.89068 
C          C       0.34428   0.11852   0.96840 
C          C       0.65572   0.88148   0.96840 
C          C       0.88148   0.34428   0.96840 
C          C       0.11852   0.65572   0.96840 
C          C       0.34571   0.14840   0.55685 
C          C       0.65429   0.85160   0.55685 
C          C       0.85160   0.34571   0.55685 
C          C       0.14840   0.65429   0.55685 
N          N       0.31861   0.17470   0.55812 
N          N       0.68139   0.82530   0.55812 
N          N       0.82530   0.31861   0.55812 
N          N       0.17470   0.68139   0.55812 
C          C       0.37524   0.09431   0.96176 
C          C       0.62476   0.90569   0.96176 
C          C       0.90569   0.37524   0.96176 
C          C       0.09431   0.62476   0.96176 
C          C       0.40438   0.09715   0.55060 
C          C       0.59562   0.90285   0.55060 
C          C       0.90285   0.40438   0.55060 
C          C       0.09715   0.59562   0.55060 
C          C       0.40343   0.12487   0.64394 
C          C       0.59657   0.87513   0.64394 
C          C       0.87513   0.40343   0.64394 
C          C       0.12487   0.59657   0.64394 
C          C       0.37480   0.15105   0.64465 
C          C       0.62520   0.84895   0.64465 
C          C       0.84895   0.37480   0.64465 
C          C       0.15105   0.62520   0.64465 
C          C       0.42394   0.96944   0.59018 
C          C       0.57606   0.03056   0.59018 
C          C       0.03056   0.42394   0.59018 
C          C       0.96944   0.57606   0.59018 
N          N       0.44728   0.00032   0.55867 
N          N       0.55272   0.99968   0.55867 
N          N       0.99968   0.44728   0.55867 
N          N       0.00032   0.55272   0.55867 
C          C       0.52104   0.11239   0.97143 
C          C       0.47896   0.88761   0.97143 
C          C       0.88761   0.52104   0.97143 
C          C       0.11239   0.47896   0.97143 
C          C       0.48257   0.11275   0.97157 
C          C       0.51743   0.88725   0.97157 
C          C       0.88725   0.48257   0.97157 
C          C       0.11275   0.51743   0.97157 
C          C       0.47141   0.07971   0.52843 
C          C       0.52859   0.92029   0.52843 
C          C       0.92029   0.47141   0.52843 
C          C       0.07971   0.52859   0.52843 
N          N       0.50139   0.05949   0.56371 
N          N       0.49861   0.94051   0.56371 
N          N       0.94051   0.50139   0.56371 
N          N       0.05949   0.49861   0.56371 
C          C       0.53176   0.07940   0.52945 
C          C       0.46824   0.92060   0.52945 
C          C       0.92060   0.53176   0.52945 
C          C       0.07940   0.46824   0.52945 
C          C       0.43437   0.06894   0.55356 
C          C       0.56563   0.93106   0.55356 
C          C       0.93106   0.43437   0.55356 
C          C       0.06894   0.56563   0.55356 
C          C       0.20619   0.39251   0.71170 
C          C       0.79381   0.60749   0.71170 
C          C       0.60749   0.20619   0.71170 
C          C       0.39251   0.79381   0.71170 
C          C       0.24268   0.40394   0.68102 
C          C       0.75732   0.59606   0.68102 
C          C       0.59606   0.24268   0.68102 
C          C       0.40394   0.75732   0.68102 
C          C       0.26136   0.43003   0.75631 
C          C       0.73864   0.56997   0.75631 
C          C       0.56997   0.26136   0.75631 
C          C       0.43003   0.73864   0.75631 
C          C       0.24381   0.44540   0.86324 
C          C       0.75619   0.55460   0.86324 
C          C       0.55460   0.24381   0.86324 
C          C       0.44540   0.75619   0.86324 
C          C       0.20777   0.43343   0.89576 
C          C       0.79223   0.56657   0.89576 
C          C       0.56657   0.20777   0.89576 
C          C       0.43343   0.79223   0.89576 
C          C       0.18913   0.40720   0.82055 
C          C       0.81087   0.59280   0.82055 
C          C       0.59280   0.18913   0.82055 
C          C       0.40720   0.81087   0.82055 
C          C       0.26299   0.47528   0.94011 
C          C       0.73701   0.52472   0.94011 
C          C       0.52472   0.26299   0.94011 
C          C       0.47528   0.73701   0.94011 
N          N       0.27565   0.50593   0.85848 
N          N       0.72435   0.49407   0.85848 
N          N       0.49407   0.27565   0.85848 
N          N       0.50593   0.72435   0.85848 
C          C       0.31118   0.51831   0.84551 
C          C       0.68882   0.48169   0.84551 
C          C       0.48169   0.31118   0.84551 
C          C       0.51831   0.68882   0.84551 
N          N       0.31593   0.54501   0.75383 
N          N       0.68407   0.45499   0.75383 
N          N       0.45499   0.31593   0.75383 
N          N       0.54501   0.68407   0.75383 
C          C       0.28034   0.54871   0.70983 
C          C       0.71966   0.45129   0.70983 
C          C       0.45129   0.28034   0.70983 
C          C       0.54871   0.71966   0.70983 
C          C       0.25625   0.52572   0.77323 
C          C       0.74375   0.47428   0.77323 
C          C       0.47428   0.25625   0.77323 
C          C       0.52572   0.74375   0.77323 
C          C       0.34184   0.53140   0.65585 
C          C       0.65816   0.46860   0.65585 
C          C       0.46860   0.34184   0.65585 
C          C       0.53140   0.65816   0.65585 
C          C       0.26773   0.57170   0.61092 
C          C       0.73227   0.42830   0.61092 
C          C       0.42830   0.26773   0.61092 
C          C       0.57170   0.73227   0.61092 
C          C       0.22997   0.56946   0.57556 
C          C       0.77003   0.43054   0.57556 
C          C       0.43054   0.22997   0.57556 
C          C       0.56946   0.77003   0.57556 
C          C       0.20557   0.54512   0.64034 
C          C       0.79443   0.45488   0.64034 
C          C       0.45488   0.20557   0.64034 
C          C       0.54512   0.79443   0.64034 
C          C       0.21843   0.52337   0.74218 
C          C       0.78157   0.47663   0.74218 
C          C       0.47663   0.21843   0.74218 
C          C       0.52337   0.78157   0.74218 
Br         Br      0.33315   0.59033   0.82699 
Br         Br      0.66685   0.40967   0.82699 
Br         Br      0.40967   0.33315   0.82699 
Br         Br      0.59033   0.66685   0.82699 
C          C       0.30389   0.08081   0.81041 
C          C       0.69611   0.91919   0.81041 
C          C       0.91919   0.30389   0.81041 
C          C       0.08081   0.69611   0.81041 
C          C       0.28443   0.08478   0.69504 
C          C       0.71557   0.91522   0.69504 
C          C       0.91522   0.28443   0.69504 
C          C       0.08478   0.71557   0.69504 
C          C       0.27218   0.05365   0.62707 
C          C       0.72782   0.94635   0.62707 
C          C       0.94635   0.27218   0.62707 
C          C       0.05365   0.72782   0.62707 
C          C       0.28022   0.01755   0.67011 
C          C       0.71978   0.98245   0.67011 
C          C       0.98245   0.28022   0.67011 
C          C       0.01755   0.71978   0.67011 
C          C       0.30005   0.01308   0.78385 
C          C       0.69995   0.98692   0.78385 
C          C       0.98692   0.30005   0.78385 
C          C       0.01308   0.69995   0.78385 
C          C       0.31139   0.04431   0.85394 
C          C       0.68861   0.95569   0.85394 
C          C       0.95569   0.31139   0.85394 
C          C       0.04431   0.68861   0.85394 
C          C       0.26573   0.98397   0.59927 
C          C       0.73427   0.01603   0.59927 
C          C       0.01603   0.26573   0.59927 
C          C       0.98397   0.73427   0.59927 
N          N       0.23195   0.97008   0.66141 
N          N       0.76805   0.02992   0.66141 
N          N       0.02992   0.23195   0.66141 
N          N       0.97008   0.76805   0.66141 
C          C       0.19939   0.98894   0.67373 
C          C       0.80061   0.01106   0.67373 
C          C       0.01106   0.19939   0.67373 
C          C       0.98894   0.80061   0.67373 
N          N       0.17289   0.97109   0.74482 
N          N       0.82711   0.02891   0.74482 
N          N       0.02891   0.17289   0.74482 
N          N       0.97109   0.82711   0.74482 
C          C       0.19135   0.93915   0.77682 
C          C       0.80865   0.06085   0.77682 
C          C       0.06085   0.19135   0.77682 
C          C       0.93915   0.80865   0.77682 
C          C       0.22632   0.93817   0.72450 
C          C       0.77368   0.06183   0.72450 
C          C       0.06183   0.22632   0.72450 
C          C       0.93817   0.77368   0.72450 
C          C       0.13899   0.96337   0.67028 
C          C       0.86101   0.03663   0.67028 
C          C       0.03663   0.13899   0.67028 
C          C       0.96337   0.86101   0.67028 
C          C       0.17762   0.90884   0.84681 
C          C       0.82238   0.09116   0.84681 
C          C       0.09116   0.17762   0.84681 
C          C       0.90884   0.82238   0.84681 
C          C       0.20043   0.87716   0.85985 
C          C       0.79957   0.12284   0.85985 
C          C       0.12284   0.20043   0.85985 
C          C       0.87716   0.79957   0.85985 
C          C       0.23617   0.87620   0.80368 
C          C       0.76383   0.12380   0.80368 
C          C       0.12380   0.23617   0.80368 
C          C       0.87620   0.76383   0.80368 
C          C       0.24967   0.90710   0.73546 
C          C       0.75033   0.09290   0.73546 
C          C       0.09290   0.24967   0.73546 
C          C       0.90710   0.75033   0.73546 
Br         Br      0.16180   0.00156   0.88659 
Br         Br      0.83820   0.99844   0.88659 
Br         Br      0.99844   0.16180   0.88659 
Br         Br      0.00156   0.83820   0.88659 
O          O       0.21061   0.16735   0.57468 
O          O       0.78939   0.83265   0.57468 
O          O       0.83265   0.21061   0.57468 
O          O       0.16735   0.78939   0.57468 
O          O       0.26754   0.30492   0.90661 
O          O       0.73246   0.69508   0.90661 
O          O       0.69508   0.26754   0.90661 
O          O       0.30492   0.73246   0.90661 
H          H       0.05523   0.37026   0.91004 
H          H       0.94477   0.62974   0.91004 
H          H       0.62974   0.05523   0.91004 
H          H       0.37026   0.94477   0.91004 
H          H       0.09398   0.31469   0.88831 
H          H       0.90602   0.68531   0.88831 
H          H       0.68531   0.09398   0.88831 
H          H       0.31469   0.90602   0.88831 
H          H       0.13770   0.42135   0.65033 
H          H       0.86230   0.57865   0.65033 
H          H       0.57865   0.13770   0.65033 
H          H       0.42135   0.86230   0.65033 
H          H       0.23644   0.32704   0.65446 
H          H       0.76356   0.67296   0.65446 
H          H       0.67296   0.23644   0.65446 
H          H       0.32704   0.76356   0.65446 
H          H       0.17612   0.23091   0.58671 
H          H       0.82388   0.76909   0.58671 
H          H       0.76909   0.17612   0.58671 
H          H       0.23091   0.82388   0.58671 
H          H       0.30303   0.24193   0.90258 
H          H       0.69697   0.75807   0.90258 
H          H       0.75807   0.30303   0.90258 
H          H       0.24193   0.69697   0.90258 
H          H       0.25930   0.14134   0.84000 
H          H       0.74070   0.85866   0.84000 
H          H       0.85866   0.25930   0.84000 
H          H       0.14134   0.74070   0.84000 
H          H       0.37721   0.07315   0.88878 
H          H       0.62279   0.92685   0.88878 
H          H       0.92685   0.37721   0.88878 
H          H       0.07315   0.62279   0.88878 
H          H       0.42507   0.12630   0.71574 
H          H       0.57493   0.87370   0.71574 
H          H       0.87370   0.42507   0.71574 
H          H       0.12630   0.57493   0.71574 
H          H       0.37495   0.17313   0.71502 
H          H       0.62505   0.82687   0.71502 
H          H       0.82687   0.37495   0.71502 
H          H       0.17313   0.62505   0.71502 
H          H       0.46779   0.99989   0.98838 
H          H       0.53221   0.00011   0.98838 
H          H       0.00011   0.46779   0.98838 
H          H       0.99989   0.53221   0.98838 
H          H       0.25672   0.39265   0.59832 
H          H       0.74328   0.60735   0.59832 
H          H       0.60735   0.25672   0.59832 
H          H       0.39265   0.74328   0.59832 
H          H       0.28929   0.43870   0.73016 
H          H       0.71071   0.56130   0.73016 
H          H       0.56130   0.28929   0.73016 
H          H       0.43870   0.71071   0.73016 
H          H       0.19420   0.44441   0.97964 
H          H       0.80580   0.55559   0.97964 
H          H       0.55559   0.19420   0.97964 
H          H       0.44441   0.80580   0.97964 
H          H       0.28721   0.46260   0.98999 
H          H       0.71279   0.53740   0.98999 
H          H       0.53740   0.28721   0.98999 
H          H       0.46260   0.71279   0.98999 
H          H       0.24397   0.48659   0.51374 
H          H       0.75603   0.51341   0.51374 
H          H       0.51341   0.24397   0.51374 
H          H       0.48659   0.75603   0.51374 
H          H       0.33230   0.50425   0.61579 
H          H       0.66770   0.49575   0.61579 
H          H       0.49575   0.33230   0.61579 
H          H       0.50425   0.66770   0.61579 
H          H       0.37015   0.52721   0.69696 
H          H       0.62985   0.47279   0.69696 
H          H       0.47279   0.37015   0.69696 
H          H       0.52721   0.62985   0.69696 
H          H       0.34459   0.55213   0.57804 
H          H       0.65541   0.44787   0.57804 
H          H       0.44787   0.34459   0.57804 
H          H       0.55213   0.65541   0.57804 
H          H       0.28653   0.59033   0.56168 
H          H       0.71347   0.40967   0.56168 
H          H       0.40967   0.28653   0.56168 
H          H       0.59033   0.71347   0.56168 
H          H       0.21963   0.58623   0.99755 
H          H       0.78037   0.41377   0.99755 
H          H       0.41377   0.21963   0.99755 
H          H       0.58623   0.78037   0.99755 
H          H       0.17690   0.54272   0.61056 
H          H       0.82310   0.45728   0.61056 
H          H       0.45728   0.17690   0.61056 
H          H       0.54272   0.82310   0.61056 
H          H       0.19953   0.50508   0.79248 
H          H       0.80047   0.49492   0.79248 
H          H       0.49492   0.19953   0.79248 
H          H       0.50508   0.80047   0.79248 
H          H       0.27791   0.11212   0.65836 
H          H       0.72209   0.88788   0.65836 
H          H       0.88788   0.27791   0.65836 
H          H       0.11212   0.72209   0.65836 
H          H       0.25602   0.05780   0.54124 
H          H       0.74398   0.94220   0.54124 
H          H       0.94220   0.25602   0.54124 
H          H       0.05780   0.74398   0.54124 
H          H       0.30599   0.98537   0.81982 
H          H       0.69401   0.01463   0.81982 
H          H       0.01463   0.30599   0.81982 
H          H       0.98537   0.69401   0.81982 
H          H       0.28775   0.96220   0.59524 
H          H       0.71225   0.03780   0.59524 
H          H       0.03780   0.28775   0.59524 
H          H       0.96220   0.71225   0.59524 
H          H       0.25873   0.99135   0.99958 
H          H       0.74127   0.00865   0.99958 
H          H       0.00865   0.25873   0.99958 
H          H       0.99135   0.74127   0.99958 
H          H       0.14515   0.94528   0.58686 
H          H       0.85485   0.05472   0.58686 
H          H       0.05472   0.14515   0.58686 
H          H       0.94528   0.85485   0.58686 
H          H       0.12613   0.98987   0.63684 
H          H       0.87387   0.01013   0.63684 
H          H       0.01013   0.12613   0.63684 
H          H       0.98987   0.87387   0.63684 
H          H       0.11782   0.94895   0.72997 
H          H       0.88218   0.05105   0.72997 
H          H       0.05105   0.11782   0.72997 
H          H       0.94895   0.88218   0.72997 
H          H       0.14988   0.90928   0.88742 
H          H       0.85012   0.09072   0.88742 
H          H       0.09072   0.14988   0.88742 
H          H       0.90928   0.85012   0.88742 
H          H       0.19015   0.85314   0.91127 
H          H       0.80985   0.14686   0.91127 
H          H       0.14686   0.19015   0.91127 
H          H       0.85314   0.80985   0.91127 
H          H       0.25305   0.85128   0.81130 
H          H       0.74695   0.14872   0.81130 
H          H       0.14872   0.25305   0.81130 
H          H       0.85128   0.74695   0.81130 
H          H       0.27685   0.90610   0.69089 
H          H       0.72315   0.09390   0.69089 
H          H       0.09390   0.27685   0.69089 
H          H       0.90610   0.72315   0.69089 
H          H       0.96119   0.36843   0.66635 
H          H       0.03881   0.63157   0.66635 
H          H       0.63157   0.96119   0.66635 
H          H       0.36843   0.03881   0.66635 
H          H       0.03435   0.36699   0.67068 
H          H       0.96565   0.63301   0.67068 
H          H       0.63301   0.03435   0.67068 
H          H       0.36699   0.96565   0.67068 
H          H       0.53897   0.13337   0.93063 
H          H       0.46103   0.86663   0.93063 
H          H       0.86663   0.53897   0.93063 
H          H       0.13337   0.46103   0.93063 
H          H       0.46489   0.13434   0.93217 
H          H       0.53511   0.86566   0.93217 
H          H       0.86566   0.46489   0.93217 
H          H       0.13434   0.53511   0.93217 
H          H       0.16146   0.39818   0.84725 
H          H       0.83854   0.60182   0.84725 
H          H       0.60182   0.16146   0.84725 
H          H       0.39818   0.83854   0.84725 
H          H       0.33439   0.50601   0.89644 
H          H       0.66561   0.49399   0.89644 
H          H       0.49399   0.33439   0.89644 
H          H       0.50601   0.66561   0.89644 
H          H       0.32496   0.03959   0.94424 
H          H       0.67504   0.96041   0.94424 
H          H       0.96041   0.32496   0.94424 
H          H       0.03959   0.67504   0.94424 
H          H       0.19558   0.01696   0.63688 
H          H       0.80442   0.98304   0.63688 
H          H       0.98304   0.19558   0.63688 
H          H       0.01696   0.80442   0.63688 
H          H       0.22744   0.14494   0.56434 
H          H       0.77256   0.85506   0.56434 
H          H       0.85506   0.22744   0.56434 
H          H       0.14494   0.77256   0.56434 
H          H       0.24899   0.32616   0.90134 
H          H       0.75101   0.67384   0.90134 
H          H       0.67384   0.24899   0.90134 
H          H       0.32616   0.75101   0.90134 
