data_crystal
 
_cell_length_a    31.43800
_cell_length_b    31.43800
_cell_length_c    7.67040
_cell_angle_alpha 90.00000
_cell_angle_beta  90.00000
_cell_angle_gamma 90.00000
 
_space_group_name_Hall 'P 1'
_space_group_name_H-M_alt  'P 1'
 
loop_
_symmetry_equiv_pos_as_xyz
 'x,y,z' 
 
loop_
_atom_site_label
_atom_site_type_symbol
_atom_site_fract_x
_atom_site_fract_y
_atom_site_fract_z
C          C       0.07283   0.02984   0.24561 
C          C       0.92717   0.97016   0.24561 
C          C       0.02984   0.92717   0.75439 
C          C       0.97016   0.07283   0.75439 
C          C       0.09120   0.99947   0.35865 
C          C       0.90880   0.00053   0.35865 
C          C       0.99947   0.90880   0.64135 
C          C       0.00053   0.09120   0.64135 
C          C       0.11594   0.01185   0.50057 
C          C       0.88406   0.98815   0.50057 
C          C       0.01185   0.88406   0.49943 
C          C       0.98815   0.11594   0.49943 
C          C       0.12288   0.05517   0.53432 
C          C       0.87712   0.94483   0.53432 
C          C       0.05517   0.87712   0.46568 
C          C       0.94483   0.12288   0.46568 
C          C       0.10765   0.08529   0.41581 
C          C       0.89235   0.91471   0.41581 
C          C       0.08529   0.89235   0.58419 
C          C       0.91471   0.10765   0.58419 
C          C       0.08347   0.07297   0.27203 
C          C       0.91653   0.92703   0.27203 
C          C       0.07297   0.91653   0.72797 
C          C       0.92703   0.08347   0.72797 
N          N       0.14281   0.07030   0.69079 
N          N       0.85719   0.92970   0.69079 
N          N       0.07030   0.85719   0.30921 
N          N       0.92970   0.14281   0.30921 
C          C       0.15615   0.04772   0.82174 
C          C       0.84385   0.95228   0.82174 
C          C       0.04772   0.84385   0.17826 
C          C       0.95228   0.15615   0.17826 
C          C       0.17392   0.06882   0.97684 
C          C       0.82608   0.93118   0.97684 
C          C       0.06882   0.82608   0.02316 
C          C       0.93118   0.17392   0.02316 
C          C       0.19238   0.04436   0.11003 
C          C       0.80762   0.95564   0.11003 
C          C       0.04436   0.80762   0.88997 
C          C       0.95564   0.19238   0.88997 
C          C       0.21050   0.06419   0.25529 
C          C       0.78950   0.93581   0.25529 
C          C       0.06419   0.78950   0.74471 
C          C       0.93581   0.21050   0.74471 
C          C       0.20974   0.10863   0.26984 
C          C       0.79026   0.89137   0.26984 
C          C       0.10863   0.79026   0.73016 
C          C       0.89137   0.20974   0.73016 
C          C       0.19018   0.13298   0.13965 
C          C       0.80982   0.86702   0.13965 
C          C       0.13298   0.80982   0.86035 
C          C       0.86702   0.19018   0.86035 
C          C       0.17253   0.11330   0.99392 
C          C       0.82747   0.88670   0.99392 
C          C       0.11330   0.82747   0.00608 
C          C       0.88670   0.17253   0.00608 
C          C       0.23233   0.13062   0.41189 
C          C       0.76767   0.86938   0.41189 
C          C       0.13062   0.76767   0.58811 
C          C       0.86938   0.23233   0.58811 
C          C       0.20886   0.15450   0.53231 
C          C       0.79114   0.84550   0.53231 
C          C       0.15450   0.79114   0.46769 
C          C       0.84550   0.20886   0.46769 
C          C       0.22936   0.18175   0.64820 
C          C       0.77064   0.81825   0.64820 
C          C       0.18175   0.77064   0.35180 
C          C       0.81825   0.22936   0.35180 
C          C       0.42771   0.53530   0.73673 
C          C       0.57229   0.46470   0.73673 
C          C       0.53530   0.57229   0.26327 
C          C       0.46470   0.42771   0.26327 
C          C       0.43693   0.56961   0.84940 
C          C       0.56307   0.43039   0.84940 
C          C       0.56961   0.56307   0.15060 
C          C       0.43039   0.43693   0.15060 
C          C       0.40470   0.59048   0.94023 
C          C       0.59530   0.40952   0.94023 
C          C       0.59048   0.59530   0.05977 
C          C       0.40952   0.40470   0.05977 
C          C       0.36215   0.57772   0.92042 
C          C       0.63785   0.42228   0.92042 
C          C       0.57772   0.63785   0.07958 
C          C       0.42228   0.36215   0.07958 
C          C       0.35304   0.54157   0.82181 
C          C       0.64696   0.45843   0.82181 
C          C       0.54157   0.64696   0.17819 
C          C       0.45843   0.35304   0.17819 
C          C       0.38521   0.52051   0.73093 
C          C       0.61479   0.47949   0.73093 
C          C       0.52051   0.61479   0.26907 
C          C       0.47949   0.38521   0.26907 
N          N       0.32738   0.60120   0.99411 
N          N       0.67262   0.39880   0.99411 
N          N       0.60120   0.67262   0.00589 
N          N       0.39880   0.32738   0.00589 
C          C       0.32879   0.64119   0.03600 
C          C       0.67121   0.35881   0.03600 
C          C       0.64119   0.67121   0.96400 
C          C       0.35881   0.32879   0.96400 
C          C       0.29135   0.66292   0.10891 
C          C       0.70865   0.33708   0.10891 
C          C       0.66292   0.70865   0.89109 
C          C       0.33708   0.29135   0.89109 
C          C       0.29603   0.70428   0.17369 
C          C       0.70397   0.29572   0.17369 
C          C       0.70428   0.70397   0.82631 
C          C       0.29572   0.29603   0.82631 
C          C       0.26166   0.72522   0.24968 
C          C       0.73834   0.27478   0.24968 
C          C       0.72522   0.73834   0.75032 
C          C       0.27478   0.26166   0.75032 
C          C       0.22166   0.70537   0.26066 
C          C       0.77834   0.29463   0.26066 
C          C       0.70537   0.77834   0.73934 
C          C       0.29463   0.22166   0.73934 
C          C       0.21663   0.66436   0.19042 
C          C       0.78337   0.33564   0.19042 
C          C       0.66436   0.78337   0.80958 
C          C       0.33564   0.21663   0.80958 
C          C       0.25125   0.64321   0.11576 
C          C       0.74875   0.35679   0.11576 
C          C       0.64321   0.74875   0.88424 
C          C       0.35679   0.25125   0.88424 
C          C       0.18670   0.72628   0.35800 
C          C       0.81330   0.27372   0.35800 
C          C       0.72628   0.81330   0.64200 
C          C       0.27372   0.18670   0.64200 
C          C       0.16103   0.70251   0.47207 
C          C       0.83897   0.29749   0.47207 
C          C       0.70251   0.83897   0.52793 
C          C       0.29749   0.16103   0.52793 
C          C       0.13241   0.72281   0.58490 
C          C       0.86759   0.27719   0.58490 
C          C       0.72281   0.86759   0.41510 
C          C       0.27719   0.13241   0.41510 
C          C       0.89265   0.30307   0.70889 
C          C       0.10735   0.69693   0.70889 
C          C       0.30307   0.10735   0.29111 
C          C       0.69693   0.89265   0.29111 
N          N       0.92525   0.32912   0.65580 
N          N       0.07475   0.67088   0.65580 
N          N       0.32912   0.07475   0.34420 
N          N       0.67088   0.92525   0.34420 
O          O       0.88460   0.30016   0.86385 
O          O       0.11540   0.69984   0.86385 
O          O       0.30016   0.11540   0.13615 
O          O       0.69984   0.88460   0.13615 
C          C       0.93788   0.33623   0.47361 
C          C       0.06212   0.66377   0.47361 
C          C       0.33623   0.06212   0.52639 
C          C       0.66377   0.93788   0.52639 
C          C       0.93897   0.38399   0.43615 
C          C       0.06103   0.61601   0.43615 
C          C       0.38399   0.06103   0.56385 
C          C       0.61601   0.93897   0.56385 
C          C       0.95305   0.39406   0.24679 
C          C       0.04695   0.60594   0.24679 
C          C       0.39406   0.04695   0.75321 
C          C       0.60594   0.95305   0.75321 
N          N       0.99247   0.37027   0.19968 
N          N       0.00753   0.62973   0.19968 
N          N       0.37027   0.00753   0.80032 
N          N       0.62973   0.99247   0.80032 
C          C       0.99735   0.32476   0.25118 
C          C       0.00265   0.67524   0.25118 
C          C       0.32476   0.00265   0.74882 
C          C       0.67524   0.99735   0.74882 
C          C       0.98199   0.31743   0.44109 
C          C       0.01801   0.68257   0.44109 
C          C       0.31743   0.01801   0.55891 
C          C       0.68257   0.98199   0.55891 
C          C       0.96368   0.44199   0.23883 
C          C       0.03632   0.55801   0.23883 
C          C       0.44199   0.03632   0.76117 
C          C       0.55801   0.96368   0.76117 
C          C       0.91576   0.38601   0.11843 
C          C       0.08424   0.61399   0.11843 
C          C       0.38601   0.08424   0.88157 
C          C       0.61399   0.91576   0.88157 
C          C       0.04529   0.31418   0.24583 
C          C       0.95471   0.68582   0.24583 
C          C       0.31418   0.95471   0.75417 
C          C       0.68582   0.04529   0.75417 
C          C       0.97463   0.29353   0.12467 
C          C       0.02537   0.70647   0.12467 
C          C       0.29353   0.02537   0.87533 
C          C       0.70647   0.97463   0.87533 
O          O       0.00154   0.37543   0.02757 
O          O       0.99846   0.62457   0.02757 
O          O       0.37543   0.99846   0.97243 
O          O       0.62457   0.00154   0.97243 
C          C       0.98404   0.03736   0.88050 
C          C       0.01596   0.96264   0.88050 
C          C       0.03736   0.01596   0.11950 
C          C       0.96264   0.98404   0.11950 
C          C       0.94716   0.02045   0.99765 
C          C       0.05284   0.97955   0.99765 
C          C       0.02045   0.05284   0.00235 
C          C       0.97955   0.94716   0.00235 
H          H       0.08436   0.96597   0.34493 
H          H       0.91564   0.03403   0.34493 
H          H       0.96597   0.91564   0.65507 
H          H       0.03403   0.08436   0.65507 
H          H       0.12786   0.98728   0.58567 
H          H       0.87214   0.01272   0.58567 
H          H       0.98728   0.87214   0.41433 
H          H       0.01272   0.12786   0.41433 
H          H       0.11287   0.11881   0.43899 
H          H       0.88713   0.88119   0.43899 
H          H       0.11881   0.88713   0.56101 
H          H       0.88119   0.11287   0.56101 
H          H       0.07159   0.09798   0.18885 
H          H       0.92841   0.90202   0.18885 
H          H       0.09798   0.92841   0.81115 
H          H       0.90202   0.07159   0.81115 
H          H       0.15404   0.01344   0.82144 
H          H       0.84596   0.98656   0.82144 
H          H       0.01344   0.84596   0.17856 
H          H       0.98656   0.15404   0.17856 
H          H       0.19341   0.01001   0.10017 
H          H       0.80659   0.98999   0.10017 
H          H       0.01001   0.80659   0.89983 
H          H       0.98999   0.19341   0.89983 
H          H       0.22542   0.04505   0.35521 
H          H       0.77458   0.95495   0.35521 
H          H       0.04505   0.77458   0.64479 
H          H       0.95495   0.22542   0.64479 
H          H       0.18968   0.16737   0.14869 
H          H       0.81032   0.83263   0.14869 
H          H       0.16737   0.81032   0.85131 
H          H       0.83263   0.18968   0.85131 
H          H       0.15814   0.13298   0.89420 
H          H       0.84186   0.86702   0.89420 
H          H       0.13298   0.84186   0.10580 
H          H       0.86702   0.15814   0.10580 
H          H       0.17450   0.15335   0.53218 
H          H       0.82550   0.84665   0.53218 
H          H       0.15335   0.82550   0.46782 
H          H       0.84665   0.17450   0.46782 
H          H       0.21028   0.20038   0.73757 
H          H       0.78972   0.79962   0.73757 
H          H       0.20038   0.78972   0.26243 
H          H       0.79962   0.21028   0.26243 
H          H       0.46903   0.58148   0.86387 
H          H       0.53097   0.41852   0.86387 
H          H       0.58148   0.53097   0.13613 
H          H       0.41852   0.46903   0.13613 
H          H       0.41329   0.61686   0.02354 
H          H       0.58671   0.38314   0.02354 
H          H       0.61686   0.58671   0.97646 
H          H       0.38314   0.41329   0.97646 
H          H       0.32049   0.53067   0.80948 
H          H       0.67951   0.46933   0.80948 
H          H       0.53067   0.67951   0.19052 
H          H       0.46933   0.32049   0.19052 
H          H       0.37580   0.49352   0.65301 
H          H       0.62420   0.50648   0.65301 
H          H       0.49352   0.62420   0.34699 
H          H       0.50648   0.37580   0.34699 
H          H       0.35734   0.65971   0.01466 
H          H       0.64266   0.34029   0.01466 
H          H       0.65971   0.64266   0.98534 
H          H       0.34029   0.35734   0.98534 
H          H       0.32665   0.72007   0.16945 
H          H       0.67335   0.27993   0.16945 
H          H       0.72007   0.67335   0.83055 
H          H       0.27993   0.32665   0.83055 
H          H       0.26690   0.75641   0.30552 
H          H       0.73310   0.24359   0.30552 
H          H       0.75641   0.73310   0.69448 
H          H       0.24359   0.26690   0.69448 
H          H       0.18608   0.64848   0.19483 
H          H       0.81392   0.35152   0.19483 
H          H       0.64848   0.81392   0.80517 
H          H       0.35152   0.18608   0.80517 
H          H       0.24668   0.61144   0.06452 
H          H       0.75332   0.38856   0.06452 
H          H       0.61144   0.75332   0.93548 
H          H       0.38856   0.24668   0.93548 
H          H       0.16459   0.66828   0.47997 
H          H       0.83541   0.33172   0.47997 
H          H       0.66828   0.83541   0.52003 
H          H       0.33172   0.16459   0.52003 
H          H       0.94291   0.34469   0.75206 
H          H       0.05709   0.65531   0.75206 
H          H       0.34469   0.05709   0.24794 
H          H       0.65531   0.94291   0.24794 
H          H       0.91506   0.32100   0.38421 
H          H       0.08494   0.67900   0.38421 
H          H       0.32100   0.08494   0.61579 
H          H       0.67900   0.91506   0.61579 
H          H       0.90695   0.39773   0.46191 
H          H       0.09305   0.60227   0.46191 
H          H       0.39773   0.09305   0.53809 
H          H       0.60227   0.90695   0.53809 
H          H       0.96136   0.39920   0.52991 
H          H       0.03864   0.60080   0.52991 
H          H       0.39920   0.03864   0.47009 
H          H       0.60080   0.96136   0.47009 
H          H       0.00474   0.33227   0.53433 
H          H       0.99526   0.66773   0.53433 
H          H       0.33227   0.99526   0.46567 
H          H       0.66773   0.00474   0.46567 
H          H       0.98135   0.28281   0.47034 
H          H       0.01865   0.71719   0.47034 
H          H       0.28281   0.01865   0.52966 
H          H       0.71719   0.98135   0.52966 
H          H       0.92090   0.00774   0.91565 
H          H       0.07910   0.99226   0.91565 
H          H       0.00774   0.07910   0.08435 
H          H       0.99226   0.92090   0.08435 
H          H       0.93439   0.04754   0.07428 
H          H       0.06561   0.95246   0.07428 
H          H       0.04754   0.06561   0.92572 
H          H       0.95246   0.93439   0.92572 
C          C       0.48300   0.46312   0.38028 
C          C       0.51700   0.53688   0.38028 
C          C       0.46312   0.51700   0.61972 
C          C       0.53688   0.48300   0.61972 
C          C       0.44720   0.48015   0.50092 
C          C       0.55280   0.51985   0.50092 
C          C       0.48015   0.55280   0.49908 
C          C       0.51985   0.44720   0.49908 
H          H       0.43509   0.45348   0.58264 
H          H       0.56491   0.54652   0.58264 
H          H       0.45348   0.56491   0.41736 
H          H       0.54652   0.43509   0.41736 
H          H       0.42040   0.49205   0.41999 
H          H       0.57960   0.50795   0.41999 
H          H       0.49205   0.57960   0.58001 
H          H       0.50795   0.42040   0.58001 
H          H       0.01039   0.97359   0.31909 
H          H       0.98961   0.02641   0.31909 
H          H       0.97359   0.98961   0.68091 
H          H       0.02641   0.01039   0.68091 
H          H       0.51276   0.52534   0.82087 
H          H       0.48724   0.47466   0.82087 
H          H       0.52534   0.48724   0.17913 
H          H       0.47466   0.51276   0.17913 
H          H       0.06378   0.53847   0.28292 
H          H       0.93622   0.46153   0.28292 
H          H       0.53847   0.93622   0.71708 
H          H       0.46153   0.06378   0.71708 
H          H       0.02812   0.54823   0.10371 
H          H       0.97188   0.45177   0.10371 
H          H       0.54823   0.97188   0.89629 
H          H       0.45177   0.02812   0.89629 
H          H       0.00861   0.55061   0.32362 
H          H       0.99139   0.44939   0.32362 
H          H       0.55061   0.99139   0.67638 
H          H       0.44939   0.00861   0.67638 
H          H       0.07488   0.60680   0.98214 
H          H       0.92512   0.39320   0.98214 
H          H       0.60680   0.92512   0.01786 
H          H       0.39320   0.07488   0.01786 
H          H       0.11153   0.59295   0.15083 
H          H       0.88847   0.40705   0.15083 
H          H       0.59295   0.88847   0.84917 
H          H       0.40705   0.11153   0.84917 
H          H       0.09639   0.64679   0.12448 
H          H       0.90361   0.35321   0.12448 
H          H       0.64679   0.90361   0.87552 
H          H       0.35321   0.09639   0.87552 
H          H       0.93651   0.66324   0.32873 
H          H       0.06349   0.33676   0.32873 
H          H       0.66324   0.06349   0.67127 
H          H       0.33676   0.93651   0.67127 
H          H       0.94218   0.68341   0.11070 
H          H       0.05782   0.31659   0.11070 
H          H       0.68341   0.05782   0.88930 
H          H       0.31659   0.94218   0.88930 
H          H       0.94864   0.71865   0.29378 
H          H       0.05136   0.28135   0.29378 
H          H       0.71865   0.05136   0.70622 
H          H       0.28135   0.94864   0.70622 
H          H       0.01588   0.70081   0.98721 
H          H       0.98412   0.29919   0.98721 
H          H       0.70081   0.98412   0.01279 
H          H       0.29919   0.01588   0.01279 
H          H       0.06030   0.70491   0.13324 
H          H       0.93970   0.29509   0.13324 
H          H       0.70491   0.93970   0.86676 
H          H       0.29509   0.06030   0.86676 
H          H       0.01664   0.73981   0.15702 
H          H       0.98336   0.26019   0.15702 
H          H       0.73981   0.98336   0.84298 
H          H       0.26019   0.01664   0.84298 
C          C       0.00000   0.00000   0.23235 
C          C       0.00000   0.00000   0.76765 
C          C       0.50000   0.50000   0.73442 
C          C       0.50000   0.50000   0.26558 
