data_crystal
 
_cell_length_a    28.83800
_cell_length_b    28.83800
_cell_length_c    7.11320
_cell_angle_alpha 90.00000
_cell_angle_beta  90.00000
_cell_angle_gamma 90.00000
 
_space_group_name_Hall 'P 1'
_space_group_name_H-M_alt  'P 1'
 
loop_
_symmetry_equiv_pos_as_xyz
 'x,y,z' 
 
loop_
_atom_site_label
_atom_site_type_symbol
_atom_site_fract_x
_atom_site_fract_y
_atom_site_fract_z
C          C       0.03720   0.02071   0.13333 
C          C       0.96280   0.97929   0.13333 
C          C       0.02071   0.96280   0.86667 
C          C       0.97929   0.03720   0.86667 
C          C       0.06140   0.99079   0.25583 
C          C       0.93860   0.00921   0.25583 
C          C       0.99079   0.93860   0.74417 
C          C       0.00921   0.06140   0.74417 
C          C       0.09420   0.00776   0.38244 
C          C       0.90580   0.99224   0.38244 
C          C       0.00776   0.90580   0.61756 
C          C       0.99224   0.09420   0.61756 
C          C       0.10246   0.05561   0.39671 
C          C       0.89754   0.94439   0.39671 
C          C       0.05561   0.89754   0.60329 
C          C       0.94439   0.10246   0.60329 
C          C       0.07894   0.08563   0.27586 
C          C       0.92106   0.91437   0.27586 
C          C       0.08563   0.92106   0.72414 
C          C       0.91437   0.07894   0.72414 
C          C       0.04595   0.06882   0.14947 
C          C       0.95405   0.93118   0.14947 
C          C       0.06882   0.95405   0.85053 
C          C       0.93118   0.04595   0.85053 
N          N       0.13017   0.07570   0.54350 
N          N       0.86983   0.92430   0.54350 
N          N       0.07570   0.86983   0.45650 
N          N       0.92430   0.13017   0.45650 
C          C       0.15373   0.05396   0.67195 
C          C       0.84627   0.94604   0.67195 
C          C       0.05396   0.84627   0.32805 
C          C       0.94604   0.15373   0.32805 
C          C       0.17661   0.08008   0.82412 
C          C       0.82339   0.91992   0.82412 
C          C       0.08008   0.82339   0.17588 
C          C       0.91992   0.17661   0.17588 
C          C       0.20571   0.05688   0.95142 
C          C       0.79429   0.94312   0.95142 
C          C       0.05688   0.79429   0.04858 
C          C       0.94312   0.20571   0.04858 
C          C       0.22731   0.08122   0.09725 
C          C       0.77269   0.91878   0.09725 
C          C       0.08122   0.77269   0.90275 
C          C       0.91878   0.22731   0.90275 
C          C       0.21970   0.12895   0.11835 
C          C       0.78030   0.87105   0.11835 
C          C       0.12895   0.78030   0.88165 
C          C       0.87105   0.21970   0.88165 
C          C       0.18999   0.15200   0.99362 
C          C       0.81001   0.84800   0.99362 
C          C       0.15200   0.81001   0.00638 
C          C       0.84800   0.18999   0.00638 
C          C       0.16872   0.12786   0.84727 
C          C       0.83128   0.87214   0.84727 
C          C       0.12786   0.83128   0.15273 
C          C       0.87214   0.16872   0.15273 
C          C       0.24420   0.15581   0.26447 
C          C       0.75580   0.84419   0.26447 
C          C       0.15581   0.75580   0.73553 
C          C       0.84419   0.24420   0.73553 
C          C       0.21819   0.17706   0.40677 
C          C       0.78181   0.82294   0.40677 
C          C       0.17706   0.78181   0.59323 
C          C       0.82294   0.21819   0.59323 
C          C       0.23935   0.20704   0.53444 
C          C       0.76065   0.79296   0.53444 
C          C       0.20704   0.76065   0.46556 
C          C       0.79296   0.23935   0.46556 
C          C       0.46336   0.52137   0.63406 
C          C       0.53664   0.47863   0.63406 
C          C       0.52137   0.53664   0.36594 
C          C       0.47863   0.46336   0.36594 
C          C       0.47634   0.55836   0.75306 
C          C       0.52366   0.44164   0.75306 
C          C       0.55836   0.52366   0.24694 
C          C       0.44164   0.47634   0.24694 
C          C       0.44388   0.58029   0.86834 
C          C       0.55612   0.41971   0.86834 
C          C       0.58029   0.55612   0.13166 
C          C       0.41971   0.44388   0.13166 
C          C       0.39762   0.56494   0.87221 
C          C       0.60238   0.43506   0.87221 
C          C       0.56494   0.60238   0.12779 
C          C       0.43506   0.39762   0.12779 
C          C       0.38550   0.52556   0.76916 
C          C       0.61450   0.47444   0.76916 
C          C       0.52556   0.61450   0.23084 
C          C       0.47444   0.38550   0.23084 
C          C       0.41794   0.50352   0.65389 
C          C       0.58206   0.49648   0.65389 
C          C       0.50352   0.58206   0.34611 
C          C       0.49648   0.41794   0.34611 
N          N       0.36222   0.58786   0.98003 
N          N       0.63778   0.41214   0.98003 
N          N       0.58786   0.63778   0.01997 
N          N       0.41214   0.36222   0.01997 
C          C       0.36424   0.63028   0.04117 
C          C       0.63576   0.36972   0.04117 
C          C       0.63028   0.63576   0.95883 
C          C       0.36972   0.36424   0.95883 
C          C       0.32565   0.65083   0.14902 
C          C       0.67435   0.34917   0.14902 
C          C       0.65083   0.67435   0.85098 
C          C       0.34917   0.32565   0.85098 
C          C       0.33025   0.69617   0.21741 
C          C       0.66975   0.30383   0.21741 
C          C       0.69617   0.66975   0.78259 
C          C       0.30383   0.33025   0.78259 
C          C       0.29473   0.71651   0.32201 
C          C       0.70527   0.28349   0.32201 
C          C       0.71651   0.70527   0.67799 
C          C       0.28349   0.29473   0.67799 
C          C       0.25365   0.69198   0.36004 
C          C       0.74635   0.30802   0.36004 
C          C       0.69198   0.74635   0.63996 
C          C       0.30802   0.25365   0.63996 
C          C       0.24880   0.64668   0.28943 
C          C       0.75120   0.35332   0.28943 
C          C       0.64668   0.75120   0.71057 
C          C       0.35332   0.24880   0.71057 
C          C       0.28447   0.62625   0.18486 
C          C       0.71553   0.37375   0.18486 
C          C       0.62625   0.71553   0.81514 
C          C       0.37375   0.28447   0.81514 
C          C       0.21720   0.71313   0.48010 
C          C       0.78280   0.28687   0.48010 
C          C       0.71313   0.78280   0.51990 
C          C       0.28687   0.21720   0.51990 
C          C       0.19462   0.68666   0.61860 
C          C       0.80538   0.31334   0.61860 
C          C       0.68666   0.80538   0.38140 
C          C       0.31334   0.19462   0.38140 
C          C       0.16337   0.70743   0.74450 
C          C       0.83663   0.29257   0.74450 
C          C       0.70743   0.83663   0.25550 
C          C       0.29257   0.16337   0.25550 
C          C       0.85804   0.32106   0.89432 
C          C       0.14196   0.67894   0.89432 
C          C       0.32106   0.14196   0.10568 
C          C       0.67894   0.85804   0.10568 
N          N       0.88917   0.35592   0.85666 
N          N       0.11083   0.64408   0.85666 
N          N       0.35592   0.11083   0.14334 
N          N       0.64408   0.88917   0.14334 
O          O       0.84835   0.31236   0.05742 
O          O       0.15165   0.68764   0.05742 
O          O       0.31236   0.15165   0.94258 
O          O       0.68764   0.84835   0.94258 
C          C       0.90477   0.37020   0.66879 
C          C       0.09523   0.62980   0.66879 
C          C       0.37020   0.09523   0.33121 
C          C       0.62980   0.90477   0.33121 
C          C       0.89656   0.42223   0.64437 
C          C       0.10344   0.57777   0.64437 
C          C       0.42223   0.10344   0.35563 
C          C       0.57777   0.89656   0.35563 
C          C       0.91327   0.44039   0.45060 
C          C       0.08673   0.55961   0.45060 
C          C       0.44039   0.08673   0.54940 
C          C       0.55961   0.91327   0.54940 
N          N       0.96120   0.42403   0.40671 
N          N       0.03880   0.57597   0.40671 
N          N       0.42403   0.03880   0.59329 
N          N       0.57597   0.96120   0.59329 
C          C       0.97531   0.37549   0.45227 
C          C       0.02469   0.62451   0.45227 
C          C       0.37549   0.02469   0.54773 
C          C       0.62451   0.97531   0.54773 
C          C       0.95653   0.36033   0.64722 
C          C       0.04347   0.63967   0.64722 
C          C       0.36033   0.04347   0.35278 
C          C       0.63967   0.95653   0.35278 
C          C       0.91495   0.49385   0.46261 
C          C       0.08505   0.50615   0.46261 
C          C       0.49385   0.08505   0.53739 
C          C       0.50615   0.91495   0.53739 
C          C       0.87751   0.42761   0.29618 
C          C       0.12249   0.57239   0.29618 
C          C       0.42761   0.12249   0.70382 
C          C       0.57239   0.87751   0.70382 
C          C       0.02877   0.37461   0.46396 
C          C       0.97123   0.62539   0.46396 
C          C       0.37461   0.97123   0.53604 
C          C       0.62539   0.02877   0.53604 
C          C       0.96075   0.34002   0.29890 
C          C       0.03925   0.65998   0.29890 
C          C       0.34002   0.03925   0.70110 
C          C       0.65998   0.96075   0.70110 
O          O       0.97246   0.43453   0.22582 
O          O       0.02754   0.56547   0.22582 
O          O       0.43453   0.02754   0.77418 
O          O       0.56547   0.97246   0.77418 
H          H       0.05500   0.95382   0.25163 
H          H       0.94500   0.04618   0.25163 
H          H       0.95382   0.94500   0.74837 
H          H       0.04618   0.05500   0.74837 
H          H       0.11219   0.98322   0.46970 
H          H       0.88781   0.01678   0.46970 
H          H       0.98322   0.88781   0.53030 
H          H       0.01678   0.11219   0.53030 
H          H       0.08432   0.12270   0.28719 
H          H       0.91568   0.87730   0.28719 
H          H       0.12270   0.91568   0.71281 
H          H       0.87730   0.08432   0.71281 
H          H       0.02652   0.09424   0.07086 
H          H       0.97348   0.90576   0.07086 
H          H       0.09424   0.97348   0.92914 
H          H       0.90576   0.02652   0.92914 
H          H       0.15601   0.01658   0.67380 
H          H       0.84399   0.98342   0.67380 
H          H       0.01658   0.84399   0.32620 
H          H       0.98342   0.15601   0.32620 
H          H       0.21197   0.02001   0.93720 
H          H       0.78803   0.97999   0.93720 
H          H       0.02001   0.78803   0.06280 
H          H       0.97999   0.21197   0.06280 
H          H       0.25003   0.06298   0.19309 
H          H       0.74997   0.93702   0.19309 
H          H       0.06298   0.74997   0.80691 
H          H       0.93702   0.25003   0.80691 
H          H       0.18398   0.18892   0.00772 
H          H       0.81602   0.81108   0.00772 
H          H       0.18892   0.81602   0.99228 
H          H       0.81108   0.18398   0.99228 
H          H       0.14606   0.14661   0.75266 
H          H       0.85394   0.85339   0.75266 
H          H       0.14661   0.85394   0.24734 
H          H       0.85339   0.14606   0.24734 
H          H       0.18116   0.17113   0.41634 
H          H       0.81884   0.82887   0.41634 
H          H       0.17113   0.81884   0.58366 
H          H       0.82887   0.18116   0.58366 
H          H       0.21826   0.22315   0.64210 
H          H       0.78174   0.77685   0.64210 
H          H       0.22315   0.78174   0.35790 
H          H       0.77685   0.21826   0.35790 
H          H       0.51160   0.57131   0.75170 
H          H       0.48840   0.42869   0.75170 
H          H       0.57131   0.48840   0.24830 
H          H       0.42869   0.51160   0.24830 
H          H       0.45529   0.60911   0.95339 
H          H       0.54471   0.39089   0.95339 
H          H       0.60911   0.54471   0.04661 
H          H       0.39089   0.45529   0.04661 
H          H       0.35051   0.51206   0.77700 
H          H       0.64949   0.48794   0.77700 
H          H       0.51206   0.64949   0.22300 
H          H       0.48794   0.35051   0.22300 
H          H       0.40688   0.47247   0.58193 
H          H       0.59312   0.52753   0.58193 
H          H       0.47247   0.59312   0.41807 
H          H       0.52753   0.40688   0.41807 
H          H       0.39381   0.65200   0.00952 
H          H       0.60619   0.34800   0.00952 
H          H       0.65200   0.60619   0.99048 
H          H       0.34800   0.39381   0.99048 
H          H       0.36167   0.71577   0.19176 
H          H       0.63833   0.28423   0.19176 
H          H       0.71577   0.63833   0.80824 
H          H       0.28423   0.36167   0.80824 
H          H       0.29997   0.75111   0.37716 
H          H       0.70003   0.24889   0.37716 
H          H       0.75111   0.70003   0.62284 
H          H       0.24889   0.29997   0.62284 
H          H       0.21741   0.62709   0.31478 
H          H       0.78259   0.37291   0.31478 
H          H       0.62709   0.78259   0.68522 
H          H       0.37291   0.21741   0.68522 
H          H       0.27984   0.59129   0.13265 
H          H       0.72016   0.40871   0.13265 
H          H       0.59129   0.72016   0.86735 
H          H       0.40871   0.27984   0.86735 
H          H       0.20251   0.65011   0.63373 
H          H       0.79749   0.34989   0.63373 
H          H       0.65011   0.79749   0.36627 
H          H       0.34989   0.20251   0.36627 
H          H       0.90391   0.37321   0.97090 
H          H       0.09609   0.62679   0.97090 
H          H       0.37321   0.09609   0.02910 
H          H       0.62679   0.90391   0.02910 
H          H       0.88571   0.35109   0.55894 
H          H       0.11429   0.64891   0.55894 
H          H       0.35109   0.11429   0.44106 
H          H       0.64891   0.88571   0.44106 
H          H       0.91526   0.44084   0.75883 
H          H       0.08474   0.55916   0.75883 
H          H       0.44084   0.08474   0.24117 
H          H       0.55916   0.91526   0.24117 
H          H       0.85899   0.42971   0.66351 
H          H       0.14101   0.57029   0.66351 
H          H       0.42971   0.14101   0.33649 
H          H       0.57029   0.85899   0.33649 
H          H       0.97549   0.37903   0.76070 
H          H       0.02451   0.62097   0.76070 
H          H       0.37903   0.02451   0.23930 
H          H       0.62097   0.97549   0.23930 
H          H       0.96291   0.32269   0.66911 
H          H       0.03709   0.67731   0.66911 
H          H       0.32269   0.03709   0.33089 
H          H       0.67731   0.96291   0.33089 
H          H       0.07642   0.49076   0.32377 
H          H       0.92358   0.50924   0.32377 
H          H       0.49076   0.92358   0.67623 
H          H       0.50924   0.07642   0.67623 
H          H       0.05809   0.49488   0.56458 
H          H       0.94191   0.50512   0.56458 
H          H       0.49488   0.94191   0.43542 
H          H       0.50512   0.05809   0.43542 
H          H       0.11902   0.49184   0.50842 
H          H       0.88098   0.50816   0.50842 
H          H       0.49184   0.88098   0.49158 
H          H       0.50816   0.11902   0.49158 
H          H       0.12850   0.61004   0.28599 
H          H       0.87150   0.38996   0.28599 
H          H       0.61004   0.87150   0.71401 
H          H       0.38996   0.12850   0.71401 
H          H       0.11160   0.55915   0.15646 
H          H       0.88840   0.44085   0.15646 
H          H       0.55915   0.88840   0.84354 
H          H       0.44085   0.11160   0.84354 
H          H       0.15665   0.55641   0.32843 
H          H       0.84335   0.44359   0.32843 
H          H       0.55641   0.84335   0.67157 
H          H       0.44359   0.15665   0.67157 
H          H       0.95547   0.61726   0.32526 
H          H       0.04453   0.38274   0.32526 
H          H       0.61726   0.04453   0.67474 
H          H       0.38274   0.95547   0.67474 
H          H       0.95855   0.66008   0.50891 
H          H       0.04145   0.33992   0.50891 
H          H       0.66008   0.04145   0.49109 
H          H       0.33992   0.95855   0.49109 
H          H       0.95866   0.59918   0.56660 
H          H       0.04134   0.40082   0.56660 
H          H       0.59918   0.04134   0.43340 
H          H       0.40082   0.95866   0.43340 
H          H       0.02479   0.69478   0.33181 
H          H       0.97521   0.30522   0.33181 
H          H       0.69478   0.97521   0.66819 
H          H       0.30522   0.02479   0.66819 
H          H       0.02583   0.64989   0.15843 
H          H       0.97417   0.35011   0.15843 
H          H       0.64989   0.97417   0.84157 
H          H       0.35011   0.02583   0.84157 
H          H       0.07711   0.66439   0.28883 
H          H       0.92289   0.33561   0.28883 
H          H       0.66439   0.92289   0.71117 
H          H       0.33561   0.07711   0.71117 
C          C       0.50000   0.50000   0.50000 
C          C       0.00000   0.00000   0.00000 
