data_crystal
 
_cell_length_a    19.49000
_cell_length_b    24.43000
_cell_length_c    4.28000
_cell_angle_alpha 90.00000
_cell_angle_beta  79.60000
_cell_angle_gamma 90.00000
 
_space_group_name_Hall 'P 1'
_space_group_name_H-M_alt  'P 1'
 
loop_
_symmetry_equiv_pos_as_xyz
 'x,y,z' 
 
loop_
_atom_site_label
_atom_site_type_symbol
_atom_site_fract_x
_atom_site_fract_y
_atom_site_fract_z
C          C       0.91955   0.90092   0.00328 
C          C       0.08045   0.90092   0.99672 
C          C       0.08045   0.09908   0.99672 
C          C       0.91955   0.09908   0.00328 
C          C       0.86419   0.89972   0.82834 
C          C       0.13581   0.89972   0.17166 
C          C       0.13581   0.10028   0.17166 
C          C       0.86419   0.10028   0.82834 
C          C       0.82367   0.85289   0.82701 
C          C       0.17633   0.85289   0.17299 
C          C       0.17633   0.14711   0.17299 
C          C       0.82367   0.14711   0.82701 
C          C       0.84021   0.80619   0.98786 
C          C       0.15979   0.80619   0.01214 
C          C       0.15979   0.19381   0.01214 
C          C       0.84021   0.19381   0.98786 
C          C       0.89627   0.80708   0.15392 
C          C       0.10373   0.80708   0.84608 
C          C       0.10373   0.19292   0.84608 
C          C       0.89627   0.19292   0.15392 
C          C       0.93175   0.85498   0.17736 
C          C       0.06825   0.85498   0.82264 
C          C       0.06825   0.14502   0.82264 
C          C       0.93175   0.14502   0.17736 
C          C       0.79038   0.76187   0.04438 
C          C       0.20962   0.76187   0.95562 
C          C       0.20962   0.23813   0.95562 
C          C       0.79038   0.23813   0.04438 
N          N       0.79748   0.72602   0.25999 
N          N       0.20252   0.72602   0.74001 
N          N       0.20252   0.27398   0.74001 
N          N       0.79748   0.27398   0.25999 
C          C       0.73988   0.69834   0.43938 
C          C       0.26012   0.69834   0.56062 
C          C       0.26012   0.30166   0.56062 
C          C       0.73988   0.30166   0.43938 
C          C       0.75051   0.64937   0.59126 
C          C       0.24949   0.64937   0.40874 
C          C       0.24949   0.35063   0.40874 
C          C       0.75051   0.35063   0.59126 
C          C       0.69417   0.62356   0.77924 
C          C       0.30583   0.62356   0.22076 
C          C       0.30583   0.37644   0.22076 
C          C       0.69417   0.37644   0.77924 
C          C       0.62671   0.64579   0.80263 
C          C       0.37329   0.64579   0.19737 
C          C       0.37329   0.35421   0.19737 
C          C       0.62671   0.35421   0.80263 
C          C       0.62016   0.69965   0.69993 
C          C       0.37984   0.69965   0.30007 
C          C       0.37984   0.30035   0.30007 
C          C       0.62016   0.30035   0.69993 
C          C       0.67543   0.72492   0.51226 
C          C       0.32457   0.72492   0.48774 
C          C       0.32457   0.27508   0.48774 
C          C       0.67543   0.27508   0.51226 
C          C       0.56283   0.61316   0.91039 
C          C       0.43717   0.61316   0.08961 
C          C       0.43717   0.38684   0.08961 
C          C       0.56283   0.38684   0.91039 
C          C       0.55884   0.55696   0.84936 
C          C       0.44116   0.55696   0.15064 
C          C       0.44116   0.44304   0.15064 
C          C       0.55884   0.44304   0.84936 
C          C       0.60958   0.52826   0.63833 
C          C       0.39042   0.52826   0.36167 
C          C       0.39042   0.47174   0.36167 
C          C       0.60958   0.47174   0.63833 
C          C       0.03694   0.95040   0.99198 
C          C       0.96306   0.95040   0.00802 
C          C       0.96306   0.04960   0.00802 
C          C       0.03694   0.04960   0.99198 
H          H       0.85248   0.93465   0.69102 
H          H       0.14752   0.93465   0.30898 
H          H       0.14752   0.06535   0.30898 
H          H       0.85248   0.06535   0.69102 
H          H       0.77936   0.85325   0.70284 
H          H       0.22064   0.85325   0.29716 
H          H       0.22064   0.14675   0.29716 
H          H       0.77936   0.14675   0.70284 
H          H       0.90916   0.77228   0.28953 
H          H       0.09084   0.77228   0.71047 
H          H       0.09084   0.22772   0.71047 
H          H       0.90916   0.22772   0.28953 
H          H       0.96988   0.85570   0.32815 
H          H       0.03012   0.85570   0.67185 
H          H       0.03012   0.14430   0.67185 
H          H       0.96988   0.14430   0.32815 
H          H       0.74074   0.76746   0.96612 
H          H       0.25926   0.76746   0.03388 
H          H       0.25926   0.23254   0.03388 
H          H       0.74074   0.23254   0.96612 
H          H       0.80189   0.63105   0.56035 
H          H       0.19811   0.63105   0.43965 
H          H       0.19811   0.36895   0.43965 
H          H       0.80189   0.36895   0.56035 
H          H       0.70266   0.58499   0.89003 
H          H       0.29734   0.58499   0.10997 
H          H       0.29734   0.41501   0.10997 
H          H       0.70266   0.41501   0.89003 
H          H       0.57197   0.72233   0.75315 
H          H       0.42803   0.72233   0.24685 
H          H       0.42803   0.27767   0.24685 
H          H       0.57197   0.27767   0.75315 
H          H       0.66804   0.76603   0.43224 
H          H       0.33196   0.76603   0.56776 
H          H       0.33196   0.23397   0.56776 
H          H       0.66804   0.23397   0.43224 
H          H       0.64878   0.54878   0.46929 
H          H       0.35122   0.54878   0.53071 
H          H       0.35122   0.45122   0.53071 
H          H       0.64878   0.45122   0.46929 
C          C       0.92788   0.00000   0.02719 
C          C       0.07212   0.00000   0.97281 
C          C       0.50000   0.35653   0.00000 
C          C       0.50000   0.64347   0.00000 
C          C       0.50000   0.47147   0.00000 
C          C       0.50000   0.52853   0.00000 
H          H       0.50000   0.31929   0.50000 
H          H       0.50000   0.68071   0.50000 
H          H       0.12868   0.00000   0.93744 
H          H       0.87132   0.00000   0.06256 
