data_crystal
 
_cell_length_a    54.81000
_cell_length_b    82.79000
_cell_length_c    3.99000
_cell_angle_alpha 90.00000
_cell_angle_beta  90.00000
_cell_angle_gamma 90.00000
 
_space_group_name_Hall 'P 1'
_space_group_name_H-M_alt  'P 1'
 
loop_
_symmetry_equiv_pos_as_xyz
 'x,y,z' 
 
loop_
_atom_site_label
_atom_site_type_symbol
_atom_site_fract_x
_atom_site_fract_y
_atom_site_fract_z
C          C       0.43382   0.04253   0.01091 
C          C       0.56618   0.95747   0.01091 
C          C       0.68382   0.20747   0.26091 
C          C       0.81618   0.29253   0.26091 
C          C       0.43382   0.54253   0.51091 
C          C       0.56618   0.45747   0.51091 
C          C       0.68382   0.70747   0.76091 
C          C       0.81618   0.79253   0.76091 
C          C       0.93382   0.04253   0.51091 
C          C       0.06618   0.95747   0.51091 
C          C       0.18382   0.20747   0.76091 
C          C       0.31618   0.29253   0.76091 
C          C       0.93382   0.54253   0.01091 
C          C       0.06618   0.45747   0.01091 
C          C       0.18382   0.70747   0.26091 
C          C       0.31618   0.79253   0.26091 
C          C       0.41206   0.03903   0.83872 
C          C       0.58794   0.96097   0.83872 
C          C       0.66206   0.21097   0.08872 
C          C       0.83794   0.28903   0.08872 
C          C       0.41206   0.53903   0.33872 
C          C       0.58794   0.46097   0.33872 
C          C       0.66206   0.71097   0.58872 
C          C       0.83794   0.78903   0.58872 
C          C       0.91206   0.03903   0.33872 
C          C       0.08794   0.96097   0.33872 
C          C       0.16206   0.21097   0.58872 
C          C       0.33794   0.28903   0.58872 
C          C       0.91206   0.53903   0.83872 
C          C       0.08794   0.46097   0.83872 
C          C       0.16206   0.71097   0.08872 
C          C       0.33794   0.78903   0.08872 
C          C       0.39741   0.05151   0.71370 
C          C       0.60259   0.94849   0.71370 
C          C       0.64741   0.19849   0.96370 
C          C       0.85259   0.30151   0.96370 
C          C       0.39741   0.55151   0.21370 
C          C       0.60259   0.44849   0.21370 
C          C       0.64741   0.69849   0.46370 
C          C       0.85259   0.80151   0.46370 
C          C       0.89741   0.05151   0.21370 
C          C       0.10259   0.94849   0.21370 
C          C       0.14741   0.19849   0.46370 
C          C       0.35259   0.30151   0.46370 
C          C       0.89741   0.55151   0.71370 
C          C       0.10259   0.44849   0.71370 
C          C       0.14741   0.69849   0.96370 
C          C       0.35259   0.80151   0.96370 
C          C       0.40416   0.06770   0.76104 
C          C       0.59584   0.93230   0.76104 
C          C       0.65416   0.18230   0.01104 
C          C       0.84584   0.31770   0.01104 
C          C       0.40416   0.56770   0.26104 
C          C       0.59584   0.43230   0.26104 
C          C       0.65416   0.68230   0.51104 
C          C       0.84584   0.81770   0.51104 
C          C       0.90416   0.06770   0.26104 
C          C       0.09584   0.93230   0.26104 
C          C       0.15416   0.18230   0.51104 
C          C       0.34584   0.31770   0.51104 
C          C       0.90416   0.56770   0.76104 
C          C       0.09584   0.43230   0.76104 
C          C       0.15416   0.68230   0.01104 
C          C       0.34584   0.81770   0.01104 
C          C       0.42563   0.07121   0.93812 
C          C       0.57437   0.92879   0.93812 
C          C       0.67563   0.17879   0.18812 
C          C       0.82437   0.32121   0.18812 
C          C       0.42563   0.57121   0.43812 
C          C       0.57437   0.42879   0.43812 
C          C       0.67563   0.67879   0.68812 
C          C       0.82437   0.82121   0.68812 
C          C       0.92563   0.07121   0.43812 
C          C       0.07437   0.92879   0.43812 
C          C       0.17563   0.17879   0.68812 
C          C       0.32437   0.32121   0.68812 
C          C       0.92563   0.57121   0.93812 
C          C       0.07437   0.42879   0.93812 
C          C       0.17563   0.67879   0.18812 
C          C       0.32437   0.82121   0.18812 
C          C       0.44020   0.05882   0.06239 
C          C       0.55980   0.94118   0.06239 
C          C       0.69020   0.19118   0.31239 
C          C       0.80980   0.30882   0.31239 
C          C       0.44020   0.55882   0.56239 
C          C       0.55980   0.44118   0.56239 
C          C       0.69020   0.69118   0.81239 
C          C       0.80980   0.80882   0.81239 
C          C       0.94020   0.05882   0.56239 
C          C       0.05980   0.94118   0.56239 
C          C       0.19020   0.19118   0.81239 
C          C       0.30980   0.30882   0.81239 
C          C       0.94020   0.55882   0.06239 
C          C       0.05980   0.44118   0.06239 
C          C       0.19020   0.69118   0.31239 
C          C       0.30980   0.80882   0.31239 
C          C       0.38895   0.08081   0.62369 
C          C       0.61105   0.91919   0.62369 
C          C       0.63895   0.16919   0.87369 
C          C       0.86105   0.33081   0.87369 
C          C       0.38895   0.58081   0.12369 
C          C       0.61105   0.41919   0.12369 
C          C       0.63895   0.66919   0.37369 
C          C       0.86105   0.83081   0.37369 
C          C       0.88895   0.08081   0.12369 
C          C       0.11105   0.91919   0.12369 
C          C       0.13895   0.16919   0.37369 
C          C       0.36105   0.33081   0.37369 
C          C       0.88895   0.58081   0.62369 
C          C       0.11105   0.41919   0.62369 
C          C       0.13895   0.66919   0.87369 
C          C       0.36105   0.83081   0.87369 
N          N       0.39520   0.09576   0.67066 
N          N       0.60480   0.90424   0.67066 
N          N       0.64520   0.15424   0.92066 
N          N       0.85480   0.34576   0.92066 
N          N       0.39520   0.59576   0.17066 
N          N       0.60480   0.40424   0.17066 
N          N       0.64520   0.65424   0.42066 
N          N       0.85480   0.84576   0.42066 
N          N       0.89520   0.09576   0.17066 
N          N       0.10480   0.90424   0.17066 
N          N       0.14520   0.15424   0.42066 
N          N       0.35480   0.34576   0.42066 
N          N       0.89520   0.59576   0.67066 
N          N       0.10480   0.40424   0.67066 
N          N       0.14520   0.65424   0.92066 
N          N       0.35480   0.84576   0.92066 
C          C       0.38210   0.10962   0.55259 
C          C       0.61790   0.89038   0.55259 
C          C       0.63210   0.14038   0.80259 
C          C       0.86790   0.35962   0.80259 
C          C       0.38210   0.60962   0.05259 
C          C       0.61790   0.39038   0.05259 
C          C       0.63210   0.64038   0.30259 
C          C       0.86790   0.85962   0.30259 
C          C       0.88210   0.10962   0.05259 
C          C       0.11790   0.89038   0.05259 
C          C       0.13210   0.14038   0.30259 
C          C       0.36790   0.35962   0.30259 
C          C       0.88210   0.60962   0.55259 
C          C       0.11790   0.39038   0.55259 
C          C       0.13210   0.64038   0.80259 
C          C       0.36790   0.85962   0.80259 
C          C       0.39567   0.12199   0.40397 
C          C       0.60433   0.87801   0.40397 
C          C       0.64567   0.12801   0.65397 
C          C       0.85433   0.37199   0.65397 
C          C       0.39567   0.62199   0.90397 
C          C       0.60433   0.37801   0.90397 
C          C       0.64567   0.62801   0.15397 
C          C       0.85433   0.87199   0.15397 
C          C       0.89567   0.12199   0.90397 
C          C       0.10433   0.87801   0.90397 
C          C       0.14567   0.12801   0.15397 
C          C       0.35433   0.37199   0.15397 
C          C       0.89567   0.62199   0.40397 
C          C       0.10433   0.37801   0.40397 
C          C       0.14567   0.62801   0.65397 
C          C       0.35433   0.87199   0.65397 
C          C       0.38447   0.13622   0.29323 
C          C       0.61553   0.86378   0.29323 
C          C       0.63447   0.11378   0.54323 
C          C       0.86553   0.38622   0.54323 
C          C       0.38447   0.63622   0.79323 
C          C       0.61553   0.36378   0.79323 
C          C       0.63447   0.61378   0.04323 
C          C       0.86553   0.88622   0.04323 
C          C       0.88447   0.13622   0.79323 
C          C       0.11553   0.86378   0.79323 
C          C       0.13447   0.11378   0.04323 
C          C       0.36553   0.38622   0.04323 
C          C       0.88447   0.63622   0.29323 
C          C       0.11553   0.36378   0.29323 
C          C       0.13447   0.61378   0.54323 
C          C       0.36553   0.88622   0.54323 
C          C       0.35915   0.13819   0.33203 
C          C       0.64085   0.86181   0.33203 
C          C       0.60915   0.11181   0.58203 
C          C       0.89085   0.38819   0.58203 
C          C       0.35915   0.63819   0.83203 
C          C       0.64085   0.36181   0.83203 
C          C       0.60915   0.61181   0.08203 
C          C       0.89085   0.88819   0.08203 
C          C       0.85915   0.13819   0.83203 
C          C       0.14085   0.86181   0.83203 
C          C       0.10915   0.11181   0.08203 
C          C       0.39085   0.38819   0.08203 
C          C       0.85915   0.63819   0.33203 
C          C       0.14085   0.36181   0.33203 
C          C       0.10915   0.61181   0.58203 
C          C       0.39085   0.88819   0.58203 
C          C       0.34562   0.12608   0.49621 
C          C       0.65438   0.87392   0.49621 
C          C       0.59562   0.12392   0.74621 
C          C       0.90438   0.37608   0.74621 
C          C       0.34562   0.62608   0.99621 
C          C       0.65438   0.37392   0.99621 
C          C       0.59562   0.62392   0.24621 
C          C       0.90438   0.87608   0.24621 
C          C       0.84562   0.12608   0.99621 
C          C       0.15438   0.87392   0.99621 
C          C       0.09562   0.12392   0.24621 
C          C       0.40438   0.37608   0.24621 
C          C       0.84562   0.62608   0.49621 
C          C       0.15438   0.37392   0.49621 
C          C       0.09562   0.62392   0.74621 
C          C       0.40438   0.87608   0.74621 
C          C       0.35682   0.11182   0.60818 
C          C       0.64318   0.88818   0.60818 
C          C       0.60682   0.13818   0.85818 
C          C       0.89318   0.36182   0.85818 
C          C       0.35682   0.61182   0.10818 
C          C       0.64318   0.38818   0.10818 
C          C       0.60682   0.63818   0.35818 
C          C       0.89318   0.86182   0.35818 
C          C       0.85682   0.11182   0.10818 
C          C       0.14318   0.88818   0.10818 
C          C       0.10682   0.13818   0.35818 
C          C       0.39318   0.36182   0.35818 
C          C       0.85682   0.61182   0.60818 
C          C       0.14318   0.38818   0.60818 
C          C       0.10682   0.63818   0.85818 
C          C       0.39318   0.86182   0.85818 
N          N       0.34794   0.15265   0.20384 
N          N       0.65206   0.84735   0.20384 
N          N       0.59794   0.09735   0.45384 
N          N       0.90206   0.40265   0.45384 
N          N       0.34794   0.65265   0.70384 
N          N       0.65206   0.34735   0.70384 
N          N       0.59794   0.59735   0.95384 
N          N       0.90206   0.90265   0.95384 
N          N       0.84794   0.15265   0.70384 
N          N       0.15206   0.84735   0.70384 
N          N       0.09794   0.09735   0.95384 
N          N       0.40206   0.40265   0.95384 
N          N       0.84794   0.65265   0.20384 
N          N       0.15206   0.34735   0.20384 
N          N       0.09794   0.59735   0.45384 
N          N       0.40206   0.90265   0.45384 
C          C       0.34159   0.09953   0.79186 
C          C       0.65841   0.90047   0.79186 
C          C       0.59159   0.15047   0.04186 
C          C       0.90841   0.34953   0.04186 
C          C       0.34159   0.59953   0.29186 
C          C       0.65841   0.40047   0.29186 
C          C       0.59159   0.65047   0.54186 
C          C       0.90841   0.84953   0.54186 
C          C       0.84159   0.09953   0.29186 
C          C       0.15841   0.90047   0.29186 
C          C       0.09159   0.15047   0.54186 
C          C       0.40841   0.34953   0.54186 
C          C       0.84159   0.59953   0.79186 
C          C       0.15841   0.40047   0.79186 
C          C       0.09159   0.65047   0.04186 
C          C       0.40841   0.84953   0.04186 
C          C       0.39965   0.14942   0.13910 
C          C       0.60035   0.85058   0.13910 
C          C       0.64965   0.10058   0.38910 
C          C       0.85035   0.39942   0.38910 
C          C       0.39965   0.64942   0.63910 
C          C       0.60035   0.35058   0.63910 
C          C       0.64965   0.60058   0.88910 
C          C       0.85035   0.89942   0.88910 
C          C       0.89965   0.14942   0.63910 
C          C       0.10035   0.85058   0.63910 
C          C       0.14965   0.10058   0.88910 
C          C       0.35035   0.39942   0.88910 
C          C       0.89965   0.64942   0.13910 
C          C       0.10035   0.35058   0.13910 
C          C       0.14965   0.60058   0.38910 
C          C       0.35035   0.89942   0.38910 
C          C       0.32479   0.15486   0.15227 
C          C       0.67521   0.84514   0.15227 
C          C       0.57479   0.09514   0.40227 
C          C       0.92521   0.40486   0.40227 
C          C       0.32479   0.65486   0.65227 
C          C       0.67521   0.34514   0.65227 
C          C       0.57479   0.59514   0.90227 
C          C       0.92521   0.90486   0.90227 
C          C       0.82479   0.15486   0.65227 
C          C       0.17521   0.84514   0.65227 
C          C       0.07479   0.09514   0.90227 
C          C       0.42521   0.40486   0.90227 
C          C       0.82479   0.65486   0.15227 
C          C       0.17521   0.34514   0.15227 
C          C       0.07479   0.59514   0.40227 
C          C       0.42521   0.90486   0.40227 
C          C       0.31569   0.17009   0.00841 
C          C       0.68431   0.82991   0.00841 
C          C       0.56569   0.07991   0.25841 
C          C       0.93431   0.42009   0.25841 
C          C       0.31569   0.67009   0.50841 
C          C       0.68431   0.32991   0.50841 
C          C       0.56569   0.57991   0.75841 
C          C       0.93431   0.92009   0.75841 
C          C       0.81569   0.17009   0.50841 
C          C       0.18431   0.82991   0.50841 
C          C       0.06569   0.07991   0.75841 
C          C       0.43431   0.42009   0.75841 
C          C       0.81569   0.67009   0.00841 
C          C       0.18431   0.32991   0.00841 
C          C       0.06569   0.57991   0.25841 
C          C       0.43431   0.92009   0.25841 
C          C       0.29053   0.17220   0.97123 
C          C       0.70947   0.82780   0.97123 
C          C       0.54053   0.07780   0.22123 
C          C       0.95947   0.42220   0.22123 
C          C       0.29053   0.67220   0.47123 
C          C       0.70947   0.32780   0.47123 
C          C       0.54053   0.57780   0.72123 
C          C       0.95947   0.92220   0.72123 
C          C       0.79053   0.17220   0.47123 
C          C       0.20947   0.82780   0.47123 
C          C       0.04053   0.07780   0.72123 
C          C       0.45947   0.42220   0.72123 
C          C       0.79053   0.67220   0.97123 
C          C       0.20947   0.32780   0.97123 
C          C       0.04053   0.57780   0.22123 
C          C       0.45947   0.92220   0.22123 
C          C       0.28126   0.18622   0.82629 
C          C       0.71874   0.81378   0.82629 
C          C       0.53126   0.06378   0.07629 
C          C       0.96874   0.43622   0.07629 
C          C       0.28126   0.68622   0.32629 
C          C       0.71874   0.31378   0.32629 
C          C       0.53126   0.56378   0.57629 
C          C       0.96874   0.93622   0.57629 
C          C       0.78126   0.18622   0.32629 
C          C       0.21874   0.81378   0.32629 
C          C       0.03126   0.06378   0.57629 
C          C       0.46874   0.43622   0.57629 
C          C       0.78126   0.68622   0.82629 
C          C       0.21874   0.31378   0.82629 
C          C       0.03126   0.56378   0.07629 
C          C       0.46874   0.93622   0.07629 
C          C       0.29697   0.19853   0.71205 
C          C       0.70303   0.80147   0.71205 
C          C       0.54697   0.05147   0.96205 
C          C       0.95303   0.44853   0.96205 
C          C       0.29697   0.69853   0.21205 
C          C       0.70303   0.30147   0.21205 
C          C       0.54697   0.55147   0.46205 
C          C       0.95303   0.94853   0.46205 
C          C       0.79697   0.19853   0.21205 
C          C       0.20303   0.80147   0.21205 
C          C       0.04697   0.05147   0.46205 
C          C       0.45303   0.44853   0.46205 
C          C       0.79697   0.69853   0.71205 
C          C       0.20303   0.30147   0.71205 
C          C       0.04697   0.55147   0.96205 
C          C       0.45303   0.94853   0.96205 
C          C       0.32227   0.19646   0.75478 
C          C       0.67773   0.80354   0.75478 
C          C       0.57227   0.05354   0.00478 
C          C       0.92773   0.44646   0.00478 
C          C       0.32227   0.69646   0.25478 
C          C       0.67773   0.30354   0.25478 
C          C       0.57227   0.55354   0.50478 
C          C       0.92773   0.94646   0.50478 
C          C       0.82227   0.19646   0.25478 
C          C       0.17773   0.80354   0.25478 
C          C       0.07227   0.05354   0.50478 
C          C       0.42773   0.44646   0.50478 
C          C       0.82227   0.69646   0.75478 
C          C       0.17773   0.30354   0.75478 
C          C       0.07227   0.55354   0.00478 
C          C       0.42773   0.94646   0.00478 
C          C       0.33155   0.18238   0.90116 
C          C       0.66845   0.81762   0.90116 
C          C       0.58155   0.06762   0.15116 
C          C       0.91845   0.43238   0.15116 
C          C       0.33155   0.68238   0.40116 
C          C       0.66845   0.31762   0.40116 
C          C       0.58155   0.56762   0.65116 
C          C       0.91845   0.93238   0.65116 
C          C       0.83155   0.18238   0.40116 
C          C       0.16845   0.81762   0.40116 
C          C       0.08155   0.06762   0.65116 
C          C       0.41845   0.43238   0.65116 
C          C       0.83155   0.68238   0.90116 
C          C       0.16845   0.31762   0.90116 
C          C       0.08155   0.56762   0.15116 
C          C       0.41845   0.93238   0.15116 
C          C       0.28710   0.71338   0.04991 
C          C       0.71290   0.28662   0.04991 
C          C       0.53710   0.53662   0.29991 
C          C       0.96290   0.96338   0.29991 
C          C       0.28710   0.21338   0.54991 
C          C       0.71290   0.78662   0.54991 
C          C       0.53710   0.03662   0.79991 
C          C       0.96290   0.46338   0.79991 
C          C       0.78710   0.71338   0.54991 
C          C       0.21290   0.28662   0.54991 
C          C       0.03710   0.53662   0.79991 
C          C       0.46290   0.96338   0.79991 
C          C       0.78710   0.21338   0.04991 
C          C       0.21290   0.78662   0.04991 
C          C       0.03710   0.03662   0.29991 
C          C       0.46290   0.46338   0.29991 
S          S       0.19610   0.76978   0.97391 
S          S       0.80390   0.23022   0.97391 
S          S       0.44610   0.48022   0.22391 
S          S       0.05390   0.01978   0.22391 
S          S       0.19610   0.26978   0.47391 
S          S       0.80390   0.73022   0.47391 
S          S       0.44610   0.98022   0.72391 
S          S       0.05390   0.51978   0.72391 
S          S       0.69610   0.76978   0.47391 
S          S       0.30390   0.23022   0.47391 
S          S       0.94610   0.48022   0.72391 
S          S       0.55390   0.01978   0.72391 
S          S       0.69610   0.26978   0.97391 
S          S       0.30390   0.73022   0.97391 
S          S       0.94610   0.98022   0.22391 
S          S       0.55390   0.51978   0.22391 
C          C       0.22130   0.76035   0.80221 
C          C       0.77870   0.23965   0.80221 
C          C       0.47130   0.48965   0.05221 
C          C       0.02870   0.01035   0.05221 
C          C       0.22130   0.26035   0.30221 
C          C       0.77870   0.73965   0.30221 
C          C       0.47130   0.98965   0.55221 
C          C       0.02870   0.51035   0.55221 
C          C       0.72130   0.76035   0.30221 
C          C       0.27870   0.23965   0.30221 
C          C       0.97130   0.48965   0.55221 
C          C       0.52870   0.01035   0.55221 
C          C       0.72130   0.26035   0.80221 
C          C       0.27870   0.73965   0.80221 
C          C       0.97130   0.98965   0.05221 
C          C       0.52870   0.51035   0.05221 
C          C       0.24172   0.77033   0.79302 
C          C       0.75828   0.22967   0.79302 
C          C       0.49172   0.47967   0.04302 
C          C       0.00828   0.02033   0.04302 
C          C       0.24172   0.27033   0.29302 
C          C       0.75828   0.72967   0.29302 
C          C       0.49172   0.97967   0.54302 
C          C       0.00828   0.52033   0.54302 
C          C       0.74172   0.77033   0.29302 
C          C       0.25828   0.22967   0.29302 
C          C       0.99172   0.47967   0.54302 
C          C       0.50828   0.02033   0.54302 
C          C       0.74172   0.27033   0.79302 
C          C       0.25828   0.72967   0.79302 
C          C       0.99172   0.97967   0.04302 
C          C       0.50828   0.52033   0.04302 
C          C       0.23626   0.78523   0.93110 
C          C       0.76374   0.21477   0.93110 
C          C       0.48626   0.46477   0.18110 
C          C       0.01374   0.03523   0.18110 
C          C       0.23626   0.28523   0.43110 
C          C       0.76374   0.71477   0.43110 
C          C       0.48626   0.96477   0.68110 
C          C       0.01374   0.53523   0.68110 
C          C       0.73626   0.78523   0.43110 
C          C       0.26374   0.21477   0.43110 
C          C       0.98626   0.46477   0.68110 
C          C       0.51374   0.03523   0.68110 
C          C       0.73626   0.28523   0.93110 
C          C       0.26374   0.71477   0.93110 
C          C       0.98626   0.96477   0.18110 
C          C       0.51374   0.53523   0.18110 
C          C       0.30038   0.77937   0.39104 
C          C       0.69962   0.22063   0.39104 
C          C       0.55038   0.47063   0.64104 
C          C       0.94962   0.02937   0.64104 
C          C       0.30038   0.27937   0.89104 
C          C       0.69962   0.72063   0.89104 
C          C       0.55038   0.97063   0.14104 
C          C       0.94962   0.52937   0.14104 
C          C       0.80038   0.77937   0.89104 
C          C       0.19962   0.22063   0.89104 
C          C       0.05038   0.47063   0.14104 
C          C       0.44962   0.02937   0.14104 
C          C       0.80038   0.27937   0.39104 
C          C       0.19962   0.72063   0.39104 
C          C       0.05038   0.97063   0.64104 
C          C       0.44962   0.52937   0.64104 
S          S       0.31070   0.76067   0.49192 
S          S       0.68930   0.23933   0.49192 
S          S       0.56070   0.48933   0.74192 
S          S       0.93930   0.01067   0.74192 
S          S       0.31070   0.26067   0.99192 
S          S       0.68930   0.73933   0.99192 
S          S       0.56070   0.98933   0.24192 
S          S       0.93930   0.51067   0.24192 
S          S       0.81070   0.76067   0.99192 
S          S       0.18930   0.23933   0.99192 
S          S       0.06070   0.48933   0.24192 
S          S       0.43930   0.01067   0.24192 
S          S       0.81070   0.26067   0.49192 
S          S       0.18930   0.73933   0.49192 
S          S       0.06070   0.98933   0.74192 
S          S       0.43930   0.51067   0.74192 
C          C       0.28198   0.75548   0.63615 
C          C       0.71802   0.24452   0.63615 
C          C       0.53198   0.49452   0.88615 
C          C       0.96802   0.00548   0.88615 
C          C       0.28198   0.25548   0.13615 
C          C       0.71802   0.74452   0.13615 
C          C       0.53198   0.99452   0.38615 
C          C       0.96802   0.50548   0.38615 
C          C       0.78198   0.75548   0.13615 
C          C       0.21802   0.24452   0.13615 
C          C       0.03198   0.49452   0.38615 
C          C       0.46802   0.00548   0.38615 
C          C       0.78198   0.25548   0.63615 
C          C       0.21802   0.74452   0.63615 
C          C       0.03198   0.99452   0.88615 
C          C       0.46802   0.50548   0.88615 
C          C       0.26533   0.76814   0.61420 
C          C       0.73467   0.23186   0.61420 
C          C       0.51533   0.48186   0.86420 
C          C       0.98467   0.01814   0.86420 
C          C       0.26533   0.26814   0.11420 
C          C       0.73467   0.73186   0.11420 
C          C       0.51533   0.98186   0.36420 
C          C       0.98467   0.51814   0.36420 
C          C       0.76533   0.76814   0.11420 
C          C       0.23467   0.23186   0.11420 
C          C       0.01533   0.48186   0.36420 
C          C       0.48467   0.01814   0.36420 
C          C       0.76533   0.26814   0.61420 
C          C       0.23467   0.73186   0.61420 
C          C       0.01533   0.98186   0.86420 
C          C       0.48467   0.51814   0.86420 
C          C       0.27628   0.78142   0.46917 
C          C       0.72372   0.21858   0.46917 
C          C       0.52628   0.46858   0.71917 
C          C       0.97372   0.03142   0.71917 
C          C       0.27628   0.28142   0.96917 
C          C       0.72372   0.71858   0.96917 
C          C       0.52628   0.96858   0.21917 
C          C       0.97372   0.53142   0.21917 
C          C       0.77628   0.78142   0.96917 
C          C       0.22372   0.21858   0.96917 
C          C       0.02628   0.46858   0.21917 
C          C       0.47372   0.03142   0.21917 
C          C       0.77628   0.28142   0.46917 
C          C       0.22372   0.71858   0.46917 
C          C       0.02628   0.96858   0.71917 
C          C       0.47372   0.53142   0.71917 
H          H       0.40652   0.02666   0.79583 
H          H       0.59348   0.97334   0.79583 
H          H       0.65652   0.22334   0.04583 
H          H       0.84348   0.27666   0.04583 
H          H       0.40652   0.52666   0.29583 
H          H       0.59348   0.47334   0.29583 
H          H       0.65652   0.72334   0.54583 
H          H       0.84348   0.77666   0.54583 
H          H       0.90652   0.02666   0.29583 
H          H       0.09348   0.97334   0.29583 
H          H       0.15652   0.22334   0.54583 
H          H       0.34348   0.27666   0.54583 
H          H       0.90652   0.52666   0.79583 
H          H       0.09348   0.47334   0.79583 
H          H       0.15652   0.72334   0.04583 
H          H       0.34348   0.77666   0.04583 
H          H       0.38092   0.04853   0.57750 
H          H       0.61908   0.95147   0.57750 
H          H       0.63092   0.20147   0.82750 
H          H       0.86908   0.29853   0.82750 
H          H       0.38092   0.54853   0.07750 
H          H       0.61908   0.45147   0.07750 
H          H       0.63092   0.70147   0.32750 
H          H       0.86908   0.79853   0.32750 
H          H       0.88092   0.04853   0.07750 
H          H       0.11908   0.95147   0.07750 
H          H       0.13092   0.20147   0.32750 
H          H       0.36908   0.29853   0.32750 
H          H       0.88092   0.54853   0.57750 
H          H       0.11908   0.45147   0.57750 
H          H       0.13092   0.70147   0.82750 
H          H       0.36908   0.79853   0.82750 
H          H       0.43118   0.08358   0.98307 
H          H       0.56882   0.91642   0.98307 
H          H       0.68118   0.16642   0.23307 
H          H       0.81882   0.33358   0.23307 
H          H       0.43118   0.58358   0.48307 
H          H       0.56882   0.41642   0.48307 
H          H       0.68118   0.66642   0.73307 
H          H       0.81882   0.83358   0.73307 
H          H       0.93118   0.08358   0.48307 
H          H       0.06882   0.91642   0.48307 
H          H       0.18118   0.16642   0.73307 
H          H       0.31882   0.33358   0.73307 
H          H       0.93118   0.58358   0.98307 
H          H       0.06882   0.41642   0.98307 
H          H       0.18118   0.66642   0.23307 
H          H       0.31882   0.83358   0.23307 
H          H       0.45615   0.06219   0.20555 
H          H       0.54385   0.93781   0.20555 
H          H       0.70615   0.18781   0.45555 
H          H       0.79385   0.31219   0.45555 
H          H       0.45615   0.56219   0.70555 
H          H       0.54385   0.43781   0.70555 
H          H       0.70615   0.68781   0.95555 
H          H       0.79385   0.81219   0.95555 
H          H       0.95615   0.06219   0.70555 
H          H       0.04385   0.93781   0.70555 
H          H       0.20615   0.18781   0.95555 
H          H       0.29385   0.31219   0.95555 
H          H       0.95615   0.56219   0.20555 
H          H       0.04385   0.43781   0.20555 
H          H       0.20615   0.68781   0.45555 
H          H       0.29385   0.81219   0.45555 
H          H       0.37306   0.07784   0.47467 
H          H       0.62694   0.92216   0.47467 
H          H       0.62306   0.17216   0.72467 
H          H       0.87694   0.32784   0.72467 
H          H       0.37306   0.57784   0.97467 
H          H       0.62694   0.42216   0.97467 
H          H       0.62306   0.67216   0.22467 
H          H       0.87694   0.82784   0.22467 
H          H       0.87306   0.07784   0.97467 
H          H       0.12694   0.92216   0.97467 
H          H       0.12306   0.17216   0.22467 
H          H       0.37694   0.32784   0.22467 
H          H       0.87306   0.57784   0.47467 
H          H       0.12694   0.42216   0.47467 
H          H       0.12306   0.67216   0.72467 
H          H       0.37694   0.82784   0.72467 
H          H       0.41519   0.12043   0.37434 
H          H       0.58481   0.87957   0.37434 
H          H       0.66519   0.12957   0.62434 
H          H       0.83481   0.37043   0.62434 
H          H       0.41519   0.62043   0.87434 
H          H       0.58481   0.37957   0.87434 
H          H       0.66519   0.62957   0.12434 
H          H       0.83481   0.87043   0.12434 
H          H       0.91519   0.12043   0.87434 
H          H       0.08481   0.87957   0.87434 
H          H       0.16519   0.12957   0.12434 
H          H       0.33481   0.37043   0.12434 
H          H       0.91519   0.62043   0.37434 
H          H       0.08481   0.37957   0.37434 
H          H       0.16519   0.62957   0.62434 
H          H       0.33481   0.87043   0.62434 
H          H       0.32638   0.12770   0.54427 
H          H       0.67362   0.87230   0.54427 
H          H       0.57638   0.12230   0.79427 
H          H       0.92362   0.37770   0.79427 
H          H       0.32638   0.62770   0.04427 
H          H       0.67362   0.37230   0.04427 
H          H       0.57638   0.62230   0.29427 
H          H       0.92362   0.87770   0.29427 
H          H       0.82638   0.12770   0.04427 
H          H       0.17362   0.87230   0.04427 
H          H       0.07638   0.12230   0.29427 
H          H       0.42362   0.37770   0.29427 
H          H       0.82638   0.62770   0.54427 
H          H       0.17362   0.37230   0.54427 
H          H       0.07638   0.62230   0.79427 
H          H       0.42362   0.87770   0.79427 
H          H       0.35195   0.09422   0.00364 
H          H       0.64805   0.90578   0.00364 
H          H       0.60195   0.15578   0.25364 
H          H       0.89805   0.34422   0.25364 
H          H       0.35195   0.59422   0.50364 
H          H       0.64805   0.40578   0.50364 
H          H       0.60195   0.65578   0.75364 
H          H       0.89805   0.84422   0.75364 
H          H       0.85195   0.09422   0.50364 
H          H       0.14805   0.90578   0.50364 
H          H       0.10195   0.15578   0.75364 
H          H       0.39805   0.34422   0.75364 
H          H       0.85195   0.59422   0.00364 
H          H       0.14805   0.40578   0.00364 
H          H       0.10195   0.65578   0.25364 
H          H       0.39805   0.84422   0.25364 
H          H       0.33594   0.08981   0.61689 
H          H       0.66406   0.91019   0.61689 
H          H       0.58594   0.16019   0.86689 
H          H       0.91406   0.33981   0.86689 
H          H       0.33594   0.58981   0.11689 
H          H       0.66406   0.41019   0.11689 
H          H       0.58594   0.66019   0.36689 
H          H       0.91406   0.83981   0.36689 
H          H       0.83594   0.08981   0.11689 
H          H       0.16406   0.91019   0.11689 
H          H       0.08594   0.16019   0.36689 
H          H       0.41406   0.33981   0.36689 
H          H       0.83594   0.58981   0.61689 
H          H       0.16406   0.41019   0.61689 
H          H       0.08594   0.66019   0.86689 
H          H       0.41406   0.83981   0.86689 
H          H       0.32485   0.10510   0.89806 
H          H       0.67515   0.89490   0.89806 
H          H       0.57485   0.14490   0.14806 
H          H       0.92515   0.35510   0.14806 
H          H       0.32485   0.60510   0.39806 
H          H       0.67515   0.39490   0.39806 
H          H       0.57485   0.64490   0.64806 
H          H       0.92515   0.85510   0.64806 
H          H       0.82485   0.10510   0.39806 
H          H       0.17515   0.89490   0.39806 
H          H       0.07485   0.14490   0.64806 
H          H       0.42515   0.35510   0.64806 
H          H       0.82485   0.60510   0.89806 
H          H       0.17515   0.39490   0.89806 
H          H       0.07485   0.64490   0.14806 
H          H       0.42515   0.85510   0.14806 
H          H       0.39246   0.15251   0.88769 
H          H       0.60754   0.84749   0.88769 
H          H       0.64246   0.09749   0.13769 
H          H       0.85754   0.40251   0.13769 
H          H       0.39246   0.65251   0.38769 
H          H       0.60754   0.34749   0.38769 
H          H       0.64246   0.59749   0.63769 
H          H       0.85754   0.90251   0.63769 
H          H       0.89246   0.15251   0.38769 
H          H       0.10754   0.84749   0.38769 
H          H       0.14246   0.09749   0.63769 
H          H       0.35754   0.40251   0.63769 
H          H       0.89246   0.65251   0.88769 
H          H       0.10754   0.34749   0.88769 
H          H       0.14246   0.59749   0.13769 
H          H       0.35754   0.90251   0.13769 
H          H       0.41906   0.14578   0.11206 
H          H       0.58094   0.85422   0.11206 
H          H       0.66906   0.10422   0.36206 
H          H       0.83094   0.39578   0.36206 
H          H       0.41906   0.64578   0.61206 
H          H       0.58094   0.35422   0.61206 
H          H       0.66906   0.60422   0.86206 
H          H       0.83094   0.89578   0.86206 
H          H       0.91906   0.14578   0.61206 
H          H       0.08094   0.85422   0.61206 
H          H       0.16906   0.10422   0.86206 
H          H       0.33094   0.39578   0.86206 
H          H       0.91906   0.64578   0.11206 
H          H       0.08094   0.35422   0.11206 
H          H       0.16906   0.60422   0.36206 
H          H       0.33094   0.89578   0.36206 
H          H       0.39882   0.16039   0.29878 
H          H       0.60118   0.83961   0.29878 
H          H       0.64882   0.08961   0.54878 
H          H       0.85118   0.41039   0.54878 
H          H       0.39882   0.66039   0.79878 
H          H       0.60118   0.33961   0.79878 
H          H       0.64882   0.58961   0.04878 
H          H       0.85118   0.91039   0.04878 
H          H       0.89882   0.16039   0.79878 
H          H       0.10118   0.83961   0.79878 
H          H       0.14882   0.08961   0.04878 
H          H       0.35118   0.41039   0.04878 
H          H       0.89882   0.66039   0.29878 
H          H       0.10118   0.33961   0.29878 
H          H       0.14882   0.58961   0.54878 
H          H       0.35118   0.91039   0.54878 
H          H       0.31175   0.14535   0.20062 
H          H       0.68825   0.85465   0.20062 
H          H       0.56175   0.10465   0.45062 
H          H       0.93825   0.39535   0.45062 
H          H       0.31175   0.64535   0.70062 
H          H       0.68825   0.35465   0.70062 
H          H       0.56175   0.60465   0.95062 
H          H       0.93825   0.89535   0.95062 
H          H       0.81175   0.14535   0.70062 
H          H       0.18825   0.85465   0.70062 
H          H       0.06175   0.10465   0.95062 
H          H       0.43825   0.39535   0.95062 
H          H       0.81175   0.64535   0.20062 
H          H       0.18825   0.35465   0.20062 
H          H       0.06175   0.60465   0.45062 
H          H       0.43825   0.89535   0.45062 
H          H       0.27795   0.16294   0.05458 
H          H       0.72205   0.83706   0.05458 
H          H       0.52795   0.08706   0.30458 
H          H       0.97205   0.41294   0.30458 
H          H       0.27795   0.66294   0.55458 
H          H       0.72205   0.33706   0.55458 
H          H       0.52795   0.58706   0.80458 
H          H       0.97205   0.91294   0.80458 
H          H       0.77795   0.16294   0.55458 
H          H       0.22205   0.83706   0.55458 
H          H       0.02795   0.08706   0.80458 
H          H       0.47205   0.41294   0.80458 
H          H       0.77795   0.66294   0.05458 
H          H       0.22205   0.33706   0.05458 
H          H       0.02795   0.58706   0.30458 
H          H       0.47205   0.91294   0.30458 
H          H       0.26170   0.18724   0.80760 
H          H       0.73830   0.81276   0.80760 
H          H       0.51170   0.06276   0.05760 
H          H       0.98830   0.43724   0.05760 
H          H       0.26170   0.68724   0.30760 
H          H       0.73830   0.31276   0.30760 
H          H       0.51170   0.56276   0.55760 
H          H       0.98830   0.93724   0.55760 
H          H       0.76170   0.18724   0.30760 
H          H       0.23830   0.81276   0.30760 
H          H       0.01170   0.06276   0.55760 
H          H       0.48830   0.43724   0.55760 
H          H       0.76170   0.68724   0.80760 
H          H       0.23830   0.31276   0.80760 
H          H       0.01170   0.56276   0.05760 
H          H       0.48830   0.93724   0.05760 
H          H       0.33503   0.20558   0.67084 
H          H       0.66497   0.79442   0.67084 
H          H       0.58503   0.04442   0.92084 
H          H       0.91497   0.45558   0.92084 
H          H       0.33503   0.70558   0.17084 
H          H       0.66497   0.29442   0.17084 
H          H       0.58503   0.54442   0.42084 
H          H       0.91497   0.95558   0.42084 
H          H       0.83503   0.20558   0.17084 
H          H       0.16497   0.79442   0.17084 
H          H       0.08503   0.04442   0.42084 
H          H       0.41497   0.45558   0.42084 
H          H       0.83503   0.70558   0.67084 
H          H       0.16497   0.29442   0.67084 
H          H       0.08503   0.54442   0.92084 
H          H       0.41497   0.95558   0.92084 
H          H       0.35112   0.18105   0.92645 
H          H       0.64888   0.81895   0.92645 
H          H       0.60112   0.06895   0.17645 
H          H       0.89888   0.43105   0.17645 
H          H       0.35112   0.68105   0.42645 
H          H       0.64888   0.31895   0.42645 
H          H       0.60112   0.56895   0.67645 
H          H       0.89888   0.93105   0.67645 
H          H       0.85112   0.18105   0.42645 
H          H       0.14888   0.81895   0.42645 
H          H       0.10112   0.06895   0.67645 
H          H       0.39888   0.43105   0.67645 
H          H       0.85112   0.68105   0.92645 
H          H       0.14888   0.31895   0.92645 
H          H       0.10112   0.56895   0.17645 
H          H       0.39888   0.93105   0.17645 
H          H       0.24898   0.79516   0.93239 
H          H       0.75102   0.20484   0.93239 
H          H       0.49898   0.45484   0.18239 
H          H       0.00102   0.04516   0.18239 
H          H       0.24898   0.29516   0.43239 
H          H       0.75102   0.70484   0.43239 
H          H       0.49898   0.95484   0.68239 
H          H       0.00102   0.54516   0.68239 
H          H       0.74898   0.79516   0.43239 
H          H       0.25102   0.20484   0.43239 
H          H       0.99898   0.45484   0.68239 
H          H       0.50102   0.04516   0.68239 
H          H       0.74898   0.29516   0.93239 
H          H       0.25102   0.70484   0.93239 
H          H       0.99898   0.95484   0.18239 
H          H       0.50102   0.54516   0.18239 
H          H       0.26705   0.79277   0.43655 
H          H       0.73295   0.20723   0.43655 
H          H       0.51705   0.45723   0.68655 
H          H       0.98295   0.04277   0.68655 
H          H       0.26705   0.29277   0.93655 
H          H       0.73295   0.70723   0.93655 
H          H       0.51705   0.95723   0.18655 
H          H       0.98295   0.54277   0.18655 
H          H       0.76705   0.79277   0.93655 
H          H       0.23295   0.20723   0.93655 
H          H       0.01705   0.45723   0.18655 
H          H       0.48295   0.04277   0.18655 
H          H       0.76705   0.29277   0.43655 
H          H       0.23295   0.70723   0.43655 
H          H       0.01705   0.95723   0.68655 
H          H       0.48295   0.54277   0.68655 
