data_crystal
 
_cell_length_a    87.11000
_cell_length_b    4.17000
_cell_length_c    66.81000
_cell_angle_alpha 90.00000
_cell_angle_beta  90.00000
_cell_angle_gamma 90.00000
 
_space_group_name_Hall 'P 1'
_space_group_name_H-M_alt  'P 1'
 
loop_
_symmetry_equiv_pos_as_xyz
 'x,y,z' 
 
loop_
_atom_site_label
_atom_site_type_symbol
_atom_site_fract_x
_atom_site_fract_y
_atom_site_fract_z
C          C       0.53001   0.85773   0.02186 
C          C       0.46999   0.14227   0.02186 
C          C       0.78001   0.39227   0.27186 
C          C       0.71999   0.10773   0.27186 
C          C       0.53001   0.35773   0.52186 
C          C       0.46999   0.64227   0.52186 
C          C       0.78001   0.89227   0.77186 
C          C       0.71999   0.60773   0.77186 
C          C       0.03001   0.85773   0.52186 
C          C       0.96999   0.14227   0.52186 
C          C       0.28001   0.39227   0.77186 
C          C       0.21999   0.10773   0.77186 
C          C       0.03001   0.35773   0.02186 
C          C       0.96999   0.64227   0.02186 
C          C       0.28001   0.89227   0.27186 
C          C       0.21999   0.60773   0.27186 
C          C       0.54269   0.03432   0.03147 
C          C       0.45731   0.96568   0.03147 
C          C       0.79269   0.21568   0.28147 
C          C       0.70731   0.28432   0.28147 
C          C       0.54269   0.53432   0.53147 
C          C       0.45731   0.46568   0.53147 
C          C       0.79269   0.71568   0.78147 
C          C       0.70731   0.78432   0.78147 
C          C       0.04269   0.03432   0.53147 
C          C       0.95731   0.96568   0.53147 
C          C       0.29269   0.21568   0.78147 
C          C       0.20731   0.28432   0.78147 
C          C       0.04269   0.53432   0.03147 
C          C       0.95731   0.46568   0.03147 
C          C       0.29269   0.71568   0.28147 
C          C       0.20731   0.78432   0.28147 
C          C       0.54172   0.12657   0.05161 
C          C       0.45828   0.87343   0.05161 
C          C       0.79172   0.12343   0.30161 
C          C       0.70828   0.37657   0.30161 
C          C       0.54172   0.62657   0.55161 
C          C       0.45828   0.37343   0.55161 
C          C       0.79172   0.62343   0.80161 
C          C       0.70828   0.87657   0.80161 
C          C       0.04172   0.12657   0.55161 
C          C       0.95828   0.87343   0.55161 
C          C       0.29172   0.12343   0.80161 
C          C       0.20828   0.37657   0.80161 
C          C       0.04172   0.62657   0.05161 
C          C       0.95828   0.37343   0.05161 
C          C       0.29172   0.62343   0.30161 
C          C       0.20828   0.87657   0.30161 
C          C       0.55375   0.29466   0.06062 
C          C       0.44625   0.70534   0.06062 
C          C       0.80375   0.95534   0.31062 
C          C       0.69625   0.54466   0.31062 
C          C       0.55375   0.79466   0.56062 
C          C       0.44625   0.20534   0.56062 
C          C       0.80375   0.45534   0.81062 
C          C       0.69625   0.04466   0.81062 
C          C       0.05375   0.29466   0.56062 
C          C       0.94625   0.70534   0.56062 
C          C       0.30375   0.95534   0.81062 
C          C       0.19625   0.54466   0.81062 
C          C       0.05375   0.79466   0.06062 
C          C       0.94625   0.20534   0.06062 
C          C       0.30375   0.45534   0.31062 
C          C       0.19625   0.04466   0.31062 
C          C       0.56691   0.37191   0.04956 
C          C       0.43309   0.62809   0.04956 
C          C       0.81691   0.87809   0.29956 
C          C       0.68309   0.62191   0.29956 
C          C       0.56691   0.87191   0.54956 
C          C       0.43309   0.12809   0.54956 
C          C       0.81691   0.37809   0.79956 
C          C       0.68309   0.12191   0.79956 
C          C       0.06691   0.37191   0.54956 
C          C       0.93309   0.62809   0.54956 
C          C       0.31691   0.87809   0.79956 
C          C       0.18309   0.62191   0.79956 
C          C       0.06691   0.87191   0.04956 
C          C       0.93309   0.12809   0.04956 
C          C       0.31691   0.37809   0.29956 
C          C       0.18309   0.12191   0.29956 
C          C       0.56793   0.28047   0.02950 
C          C       0.43207   0.71953   0.02950 
C          C       0.81793   0.96953   0.27950 
C          C       0.68207   0.53047   0.27950 
C          C       0.56793   0.78047   0.52950 
C          C       0.43207   0.21953   0.52950 
C          C       0.81793   0.46953   0.77950 
C          C       0.68207   0.03047   0.77950 
C          C       0.06793   0.28047   0.52950 
C          C       0.93207   0.71953   0.52950 
C          C       0.31793   0.96953   0.77950 
C          C       0.18207   0.53047   0.77950 
C          C       0.06793   0.78047   0.02950 
C          C       0.93207   0.21953   0.02950 
C          C       0.31793   0.46953   0.27950 
C          C       0.18207   0.03047   0.27950 
C          C       0.55588   0.11369   0.02048 
C          C       0.44412   0.88631   0.02048 
C          C       0.80588   0.13631   0.27048 
C          C       0.69412   0.36369   0.27048 
C          C       0.55588   0.61369   0.52048 
C          C       0.44412   0.38631   0.52048 
C          C       0.80588   0.63631   0.77048 
C          C       0.69412   0.86369   0.77048 
C          C       0.05588   0.11369   0.52048 
C          C       0.94412   0.88631   0.52048 
C          C       0.30588   0.13631   0.77048 
C          C       0.19412   0.36369   0.77048 
C          C       0.05588   0.61369   0.02048 
C          C       0.94412   0.38631   0.02048 
C          C       0.30588   0.63631   0.27048 
C          C       0.19412   0.86369   0.27048 
C          C       0.57988   0.54091   0.05866 
C          C       0.42012   0.45909   0.05866 
C          C       0.82988   0.70909   0.30866 
C          C       0.67012   0.79091   0.30866 
C          C       0.57988   0.04091   0.55866 
C          C       0.42012   0.95909   0.55866 
C          C       0.82988   0.20909   0.80866 
C          C       0.67012   0.29091   0.80866 
C          C       0.07988   0.54091   0.55866 
C          C       0.92012   0.45909   0.55866 
C          C       0.32988   0.70909   0.80866 
C          C       0.17012   0.79091   0.80866 
C          C       0.07988   0.04091   0.05866 
C          C       0.92012   0.95909   0.05866 
C          C       0.32988   0.20909   0.30866 
C          C       0.17012   0.29091   0.30866 
N          N       0.57923   0.65164   0.07676 
N          N       0.42077   0.34836   0.07676 
N          N       0.82923   0.59836   0.32676 
N          N       0.67077   0.90164   0.32676 
N          N       0.57923   0.15164   0.57676 
N          N       0.42077   0.84836   0.57676 
N          N       0.82923   0.09836   0.82676 
N          N       0.67077   0.40164   0.82676 
N          N       0.07923   0.65164   0.57676 
N          N       0.92077   0.34836   0.57676 
N          N       0.32923   0.59836   0.82676 
N          N       0.17077   0.90164   0.82676 
N          N       0.07923   0.15164   0.07676 
N          N       0.92077   0.84836   0.07676 
N          N       0.32923   0.09836   0.32676 
N          N       0.17077   0.40164   0.32676 
C          C       0.59195   0.80855   0.08615 
C          C       0.40805   0.19145   0.08615 
C          C       0.84195   0.44145   0.33615 
C          C       0.65805   0.05855   0.33615 
C          C       0.59195   0.30855   0.58615 
C          C       0.40805   0.69145   0.58615 
C          C       0.84195   0.94145   0.83615 
C          C       0.65805   0.55855   0.83615 
C          C       0.09195   0.80855   0.58615 
C          C       0.90805   0.19145   0.58615 
C          C       0.34195   0.44145   0.83615 
C          C       0.15805   0.05855   0.83615 
C          C       0.09195   0.30855   0.08615 
C          C       0.90805   0.69145   0.08615 
C          C       0.34195   0.94145   0.33615 
C          C       0.15805   0.55855   0.33615 
C          C       0.59012   0.93732   0.10524 
C          C       0.40988   0.06268   0.10524 
C          C       0.84012   0.31268   0.35524 
C          C       0.65988   0.18732   0.35524 
C          C       0.59012   0.43732   0.60524 
C          C       0.40988   0.56268   0.60524 
C          C       0.84012   0.81268   0.85524 
C          C       0.65988   0.68732   0.85524 
C          C       0.09012   0.93732   0.60524 
C          C       0.90988   0.06268   0.60524 
C          C       0.34012   0.31268   0.85524 
C          C       0.15988   0.18732   0.85524 
C          C       0.09012   0.43732   0.10524 
C          C       0.90988   0.56268   0.10524 
C          C       0.34012   0.81268   0.35524 
C          C       0.15988   0.68732   0.35524 
C          C       0.60254   0.07904   0.11501 
C          C       0.39746   0.92096   0.11501 
C          C       0.85254   0.17096   0.36501 
C          C       0.64746   0.32904   0.36501 
C          C       0.60254   0.57904   0.61501 
C          C       0.39746   0.42096   0.61501 
C          C       0.85254   0.67096   0.86501 
C          C       0.64746   0.82904   0.86501 
C          C       0.10254   0.07904   0.61501 
C          C       0.89746   0.92096   0.61501 
C          C       0.35254   0.17096   0.86501 
C          C       0.14746   0.32904   0.86501 
C          C       0.10254   0.57904   0.11501 
C          C       0.89746   0.42096   0.11501 
C          C       0.35254   0.67096   0.36501 
C          C       0.14746   0.82904   0.36501 
C          C       0.61716   0.09342   0.10615 
C          C       0.38284   0.90658   0.10615 
C          C       0.86716   0.15658   0.35615 
C          C       0.63284   0.34342   0.35615 
C          C       0.61716   0.59342   0.60615 
C          C       0.38284   0.40658   0.60615 
C          C       0.86716   0.65658   0.85615 
C          C       0.63284   0.84342   0.85615 
C          C       0.11716   0.09342   0.60615 
C          C       0.88284   0.90658   0.60615 
C          C       0.36716   0.15658   0.85615 
C          C       0.13284   0.34342   0.85615 
C          C       0.11716   0.59342   0.10615 
C          C       0.88284   0.40658   0.10615 
C          C       0.36716   0.65658   0.35615 
C          C       0.13284   0.84342   0.35615 
C          C       0.61883   0.96876   0.08646 
C          C       0.38117   0.03124   0.08646 
C          C       0.86883   0.28124   0.33646 
C          C       0.63117   0.21876   0.33646 
C          C       0.61883   0.46876   0.58646 
C          C       0.38117   0.53124   0.58646 
C          C       0.86883   0.78124   0.83646 
C          C       0.63117   0.71876   0.83646 
C          C       0.11883   0.96876   0.58646 
C          C       0.88117   0.03124   0.58646 
C          C       0.36883   0.28124   0.83646 
C          C       0.13117   0.21876   0.83646 
C          C       0.11883   0.46876   0.08646 
C          C       0.88117   0.53124   0.08646 
C          C       0.36883   0.78124   0.33646 
C          C       0.13117   0.71876   0.33646 
C          C       0.60633   0.82689   0.07683 
C          C       0.39367   0.17311   0.07683 
C          C       0.85633   0.42311   0.32683 
C          C       0.64367   0.07689   0.32683 
C          C       0.60633   0.32689   0.57683 
C          C       0.39367   0.67311   0.57683 
C          C       0.85633   0.92311   0.82683 
C          C       0.64367   0.57689   0.82683 
C          C       0.10633   0.82689   0.57683 
C          C       0.89367   0.17311   0.57683 
C          C       0.35633   0.42311   0.82683 
C          C       0.14367   0.07689   0.82683 
C          C       0.10633   0.32689   0.07683 
C          C       0.89367   0.67311   0.07683 
C          C       0.35633   0.92311   0.32683 
C          C       0.14367   0.57689   0.32683 
C          C       0.63015   0.24259   0.11759 
C          C       0.36985   0.75741   0.11759 
C          C       0.88015   0.00741   0.36759 
C          C       0.61985   0.49259   0.36759 
C          C       0.63015   0.74259   0.61759 
C          C       0.36985   0.25741   0.61759 
C          C       0.88015   0.50741   0.86759 
C          C       0.61985   0.99259   0.86759 
C          C       0.13015   0.24259   0.61759 
C          C       0.86985   0.75741   0.61759 
C          C       0.38015   0.00741   0.86759 
C          C       0.11985   0.49259   0.86759 
C          C       0.13015   0.74259   0.11759 
C          C       0.86985   0.25741   0.11759 
C          C       0.38015   0.50741   0.36759 
C          C       0.11985   0.99259   0.36759 
C          C       0.64174   0.40401   0.10704 
C          C       0.35826   0.59599   0.10704 
C          C       0.89174   0.84599   0.35704 
C          C       0.60826   0.65401   0.35704 
C          C       0.64174   0.90401   0.60704 
C          C       0.35826   0.09599   0.60704 
C          C       0.89174   0.34599   0.85704 
C          C       0.60826   0.15401   0.85704 
C          C       0.14174   0.40401   0.60704 
C          C       0.85826   0.59599   0.60704 
C          C       0.39174   0.84599   0.85704 
C          C       0.10826   0.65401   0.85704 
C          C       0.14174   0.90401   0.10704 
C          C       0.85826   0.09599   0.10704 
C          C       0.39174   0.34599   0.35704 
C          C       0.10826   0.15401   0.35704 
C          C       0.65391   0.55296   0.11685 
C          C       0.34609   0.44704   0.11685 
C          C       0.90391   0.69704   0.36685 
C          C       0.59609   0.80296   0.36685 
C          C       0.65391   0.05296   0.61685 
C          C       0.34609   0.94704   0.61685 
C          C       0.90391   0.19704   0.86685 
C          C       0.59609   0.30296   0.86685 
C          C       0.15391   0.55296   0.61685 
C          C       0.84609   0.44704   0.61685 
C          C       0.40391   0.69704   0.86685 
C          C       0.09609   0.80296   0.86685 
C          C       0.15391   0.05296   0.11685 
C          C       0.84609   0.94704   0.11685 
C          C       0.40391   0.19704   0.36685 
C          C       0.09609   0.30296   0.36685 
C          C       0.65478   0.54700   0.13765 
C          C       0.34522   0.45300   0.13765 
C          C       0.90478   0.70300   0.38765 
C          C       0.59522   0.79700   0.38765 
C          C       0.65478   0.04700   0.63765 
C          C       0.34522   0.95300   0.63765 
C          C       0.90478   0.20300   0.88765 
C          C       0.59522   0.29700   0.88765 
C          C       0.15478   0.54700   0.63765 
C          C       0.84522   0.45300   0.63765 
C          C       0.40478   0.70300   0.88765 
C          C       0.09522   0.79700   0.88765 
C          C       0.15478   0.04700   0.13765 
C          C       0.84522   0.95300   0.13765 
C          C       0.40478   0.20300   0.38765 
C          C       0.09522   0.29700   0.38765 
C          C       0.64343   0.38584   0.14856 
C          C       0.35657   0.61416   0.14856 
C          C       0.89343   0.86416   0.39856 
C          C       0.60657   0.63584   0.39856 
C          C       0.64343   0.88584   0.64856 
C          C       0.35657   0.11416   0.64856 
C          C       0.89343   0.36416   0.89856 
C          C       0.60657   0.13584   0.89856 
C          C       0.14343   0.38584   0.64856 
C          C       0.85657   0.61416   0.64856 
C          C       0.39343   0.86416   0.89856 
C          C       0.10657   0.63584   0.89856 
C          C       0.14343   0.88584   0.14856 
C          C       0.85657   0.11416   0.14856 
C          C       0.39343   0.36416   0.39856 
C          C       0.10657   0.13584   0.39856 
C          C       0.63122   0.23351   0.13883 
C          C       0.36878   0.76649   0.13883 
C          C       0.88122   0.01649   0.38883 
C          C       0.61878   0.48351   0.38883 
C          C       0.63122   0.73351   0.63883 
C          C       0.36878   0.26649   0.63883 
C          C       0.88122   0.51649   0.88883 
C          C       0.61878   0.98351   0.88883 
C          C       0.13122   0.23351   0.63883 
C          C       0.86878   0.76649   0.63883 
C          C       0.38122   0.01649   0.88883 
C          C       0.11878   0.48351   0.88883 
C          C       0.13122   0.73351   0.13883 
C          C       0.86878   0.26649   0.13883 
C          C       0.38122   0.51649   0.38883 
C          C       0.11878   0.98351   0.38883 
N          N       0.66722   0.70914   0.14727 
N          N       0.33278   0.29086   0.14727 
N          N       0.91722   0.54086   0.39727 
N          N       0.58278   0.95914   0.39727 
N          N       0.66722   0.20914   0.64727 
N          N       0.33278   0.79086   0.64727 
N          N       0.91722   0.04086   0.89727 
N          N       0.58278   0.45914   0.89727 
N          N       0.16722   0.70914   0.64727 
N          N       0.83278   0.29086   0.64727 
N          N       0.41722   0.54086   0.89727 
N          N       0.08278   0.95914   0.89727 
N          N       0.16722   0.20914   0.14727 
N          N       0.83278   0.79086   0.14727 
N          N       0.41722   0.04086   0.39727 
N          N       0.08278   0.45914   0.39727 
C          C       0.66802   0.75268   0.16645 
C          C       0.33198   0.24732   0.16645 
C          C       0.91802   0.49732   0.41645 
C          C       0.58198   0.00268   0.41645 
C          C       0.66802   0.25268   0.66645 
C          C       0.33198   0.74732   0.66645 
C          C       0.91802   0.99732   0.91645 
C          C       0.58198   0.50268   0.91645 
C          C       0.16802   0.75268   0.66645 
C          C       0.83198   0.24732   0.66645 
C          C       0.41802   0.49732   0.91645 
C          C       0.08198   0.00268   0.91645 
C          C       0.16802   0.25268   0.16645 
C          C       0.83198   0.74732   0.16645 
C          C       0.41802   0.99732   0.41645 
C          C       0.08198   0.50268   0.41645 
C          C       0.68103   0.92216   0.17544 
C          C       0.31897   0.07784   0.17544 
C          C       0.93103   0.32784   0.42544 
C          C       0.56897   0.17216   0.42544 
C          C       0.68103   0.42216   0.67544 
C          C       0.31897   0.57784   0.67544 
C          C       0.93103   0.82784   0.92544 
C          C       0.56897   0.67216   0.92544 
C          C       0.18103   0.92216   0.67544 
C          C       0.81897   0.07784   0.67544 
C          C       0.43103   0.32784   0.92544 
C          C       0.06897   0.17216   0.92544 
C          C       0.18103   0.42216   0.17544 
C          C       0.81897   0.57784   0.17544 
C          C       0.43103   0.82784   0.42544 
C          C       0.06897   0.67216   0.42544 
C          C       0.62011   0.05625   0.15170 
C          C       0.37989   0.94375   0.15170 
C          C       0.87011   0.19375   0.40170 
C          C       0.62989   0.30625   0.40170 
C          C       0.62011   0.55625   0.65170 
C          C       0.37989   0.44375   0.65170 
C          C       0.87011   0.69375   0.90170 
C          C       0.62989   0.80625   0.90170 
C          C       0.12011   0.05625   0.65170 
C          C       0.87989   0.94375   0.65170 
C          C       0.37011   0.19375   0.90170 
C          C       0.12989   0.30625   0.90170 
C          C       0.12011   0.55625   0.15170 
C          C       0.87989   0.44375   0.15170 
C          C       0.37011   0.69375   0.40170 
C          C       0.12989   0.80625   0.40170 
C          C       0.63367   0.96920   0.07531 
C          C       0.36633   0.03080   0.07531 
C          C       0.88367   0.28080   0.32531 
C          C       0.61633   0.21920   0.32531 
C          C       0.63367   0.46920   0.57531 
C          C       0.36633   0.53080   0.57531 
C          C       0.88367   0.78080   0.82531 
C          C       0.61633   0.71920   0.82531 
C          C       0.13367   0.96920   0.57531 
C          C       0.86633   0.03080   0.57531 
C          C       0.38367   0.28080   0.82531 
C          C       0.11633   0.21920   0.82531 
C          C       0.13367   0.46920   0.07531 
C          C       0.86633   0.53080   0.07531 
C          C       0.38367   0.78080   0.32531 
C          C       0.11633   0.71920   0.32531 
C          C       0.68073   0.99443   0.19586 
C          C       0.31927   0.00557   0.19586 
C          C       0.93073   0.25557   0.44586 
C          C       0.56927   0.24443   0.44586 
C          C       0.68073   0.49443   0.69586 
C          C       0.31927   0.50557   0.69586 
C          C       0.93073   0.75557   0.94586 
C          C       0.56927   0.74443   0.94586 
C          C       0.18073   0.99443   0.69586 
C          C       0.81927   0.00557   0.69586 
C          C       0.43073   0.25557   0.94586 
C          C       0.06927   0.24443   0.94586 
C          C       0.18073   0.49443   0.19586 
C          C       0.81927   0.50557   0.19586 
C          C       0.43073   0.75557   0.44586 
C          C       0.06927   0.74443   0.44586 
C          C       0.69295   0.15962   0.20464 
C          C       0.30705   0.84038   0.20464 
C          C       0.94295   0.09038   0.45464 
C          C       0.55705   0.40962   0.45464 
C          C       0.69295   0.65962   0.70464 
C          C       0.30705   0.34038   0.70464 
C          C       0.94295   0.59038   0.95464 
C          C       0.55705   0.90962   0.95464 
C          C       0.19295   0.15962   0.70464 
C          C       0.80705   0.84038   0.70464 
C          C       0.44295   0.09038   0.95464 
C          C       0.05705   0.40962   0.95464 
C          C       0.19295   0.65962   0.20464 
C          C       0.80705   0.34038   0.20464 
C          C       0.44295   0.59038   0.45464 
C          C       0.05705   0.90962   0.45464 
C          C       0.70564   0.25355   0.19310 
C          C       0.29436   0.74645   0.19310 
C          C       0.95564   0.99645   0.44310 
C          C       0.54436   0.50355   0.44310 
C          C       0.70564   0.75355   0.69310 
C          C       0.29436   0.24645   0.69310 
C          C       0.95564   0.49645   0.94310 
C          C       0.54436   0.00355   0.94310 
C          C       0.20564   0.25355   0.69310 
C          C       0.79436   0.74645   0.69310 
C          C       0.45564   0.99645   0.94310 
C          C       0.04436   0.50355   0.94310 
C          C       0.20564   0.75355   0.19310 
C          C       0.79436   0.24645   0.19310 
C          C       0.45564   0.49645   0.44310 
C          C       0.04436   0.00355   0.44310 
C          C       0.70591   0.17899   0.17265 
C          C       0.29409   0.82101   0.17265 
C          C       0.95591   0.07101   0.42265 
C          C       0.54409   0.42899   0.42265 
C          C       0.70591   0.67899   0.67265 
C          C       0.29409   0.32101   0.67265 
C          C       0.95591   0.57101   0.92265 
C          C       0.54409   0.92899   0.92265 
C          C       0.20591   0.17899   0.67265 
C          C       0.79409   0.82101   0.67265 
C          C       0.45591   0.07101   0.92265 
C          C       0.04409   0.42899   0.92265 
C          C       0.20591   0.67899   0.17265 
C          C       0.79409   0.32101   0.17265 
C          C       0.45591   0.57101   0.42265 
C          C       0.04409   0.92899   0.42265 
C          C       0.69367   0.01533   0.16385 
C          C       0.30633   0.98467   0.16385 
C          C       0.94367   0.23467   0.41385 
C          C       0.55633   0.26533   0.41385 
C          C       0.69367   0.51533   0.66385 
C          C       0.30633   0.48467   0.66385 
C          C       0.94367   0.73467   0.91385 
C          C       0.55633   0.76533   0.91385 
C          C       0.19367   0.01533   0.66385 
C          C       0.80633   0.98467   0.66385 
C          C       0.44367   0.23467   0.91385 
C          C       0.05633   0.26533   0.91385 
C          C       0.19367   0.51533   0.16385 
C          C       0.80633   0.48467   0.16385 
C          C       0.44367   0.73467   0.41385 
C          C       0.05633   0.76533   0.41385 
C          C       0.71863   0.42482   0.20236 
C          C       0.28137   0.57518   0.20236 
C          C       0.96863   0.82518   0.45236 
C          C       0.53137   0.67482   0.45236 
C          C       0.71863   0.92482   0.70236 
C          C       0.28137   0.07518   0.70236 
C          C       0.96863   0.32518   0.95236 
C          C       0.53137   0.17482   0.95236 
C          C       0.21863   0.42482   0.70236 
C          C       0.78137   0.57518   0.70236 
C          C       0.46863   0.82518   0.95236 
C          C       0.03137   0.67482   0.95236 
C          C       0.21863   0.92482   0.20236 
C          C       0.78137   0.07518   0.20236 
C          C       0.46863   0.32518   0.45236 
C          C       0.03137   0.17482   0.45236 
S          S       0.73530   0.50544   0.19006 
S          S       0.26470   0.49456   0.19006 
S          S       0.98530   0.74456   0.44006 
S          S       0.51470   0.75544   0.44006 
S          S       0.73530   0.00544   0.69006 
S          S       0.26470   0.99456   0.69006 
S          S       0.98530   0.24456   0.94006 
S          S       0.51470   0.25544   0.94006 
S          S       0.23530   0.50544   0.69006 
S          S       0.76470   0.49456   0.69006 
S          S       0.48530   0.74456   0.94006 
S          S       0.01470   0.75544   0.94006 
S          S       0.23530   0.00544   0.19006 
S          S       0.76470   0.99456   0.19006 
S          S       0.48530   0.24456   0.44006 
S          S       0.01470   0.25544   0.44006 
C          C       0.74243   0.67390   0.21160 
C          C       0.25757   0.32610   0.21160 
C          C       0.99243   0.57610   0.46160 
C          C       0.50757   0.92390   0.46160 
C          C       0.74243   0.17390   0.71160 
C          C       0.25757   0.82610   0.71160 
C          C       0.99243   0.07610   0.96160 
C          C       0.50757   0.42390   0.96160 
C          C       0.24243   0.67390   0.71160 
C          C       0.75757   0.32610   0.71160 
C          C       0.49243   0.57610   0.96160 
C          C       0.00757   0.92390   0.96160 
C          C       0.24243   0.17390   0.21160 
C          C       0.75757   0.82610   0.21160 
C          C       0.49243   0.07610   0.46160 
C          C       0.00757   0.42390   0.46160 
C          C       0.78168   0.96077   0.22161 
C          C       0.21832   0.03923   0.22161 
C          C       0.03168   0.28923   0.47161 
C          C       0.46832   0.21077   0.47161 
C          C       0.78168   0.46077   0.72161 
C          C       0.21832   0.53923   0.72161 
C          C       0.03168   0.78923   0.97161 
C          C       0.46832   0.71077   0.97161 
C          C       0.28168   0.96077   0.72161 
C          C       0.71832   0.03923   0.72161 
C          C       0.53168   0.28923   0.97161 
C          C       0.96832   0.21077   0.97161 
C          C       0.28168   0.46077   0.22161 
C          C       0.71832   0.53923   0.22161 
C          C       0.53168   0.78923   0.47161 
C          C       0.96832   0.71077   0.47161 
C          C       0.76799   0.82064   0.22720 
C          C       0.23201   0.17936   0.22720 
C          C       0.01799   0.42936   0.47720 
C          C       0.48201   0.07064   0.47720 
C          C       0.76799   0.32064   0.72720 
C          C       0.23201   0.67936   0.72720 
C          C       0.01799   0.92936   0.97720 
C          C       0.48201   0.57064   0.97720 
C          C       0.26799   0.82064   0.72720 
C          C       0.73201   0.17936   0.72720 
C          C       0.51799   0.42936   0.97720 
C          C       0.98201   0.07064   0.97720 
C          C       0.26799   0.32064   0.22720 
C          C       0.73201   0.67936   0.22720 
C          C       0.51799   0.92936   0.47720 
C          C       0.98201   0.57064   0.47720 
S          S       0.76425   0.52503   0.28427 
S          S       0.23575   0.47497   0.28427 
S          S       0.01425   0.72497   0.53427 
S          S       0.48575   0.77503   0.53427 
S          S       0.76425   0.02503   0.78427 
S          S       0.23575   0.97497   0.78427 
S          S       0.01425   0.22497   0.03427 
S          S       0.48575   0.27503   0.03427 
S          S       0.26425   0.52503   0.78427 
S          S       0.73575   0.47497   0.78427 
S          S       0.51425   0.72497   0.03427 
S          S       0.98575   0.77503   0.03427 
S          S       0.26425   0.02503   0.28427 
S          S       0.73575   0.97497   0.28427 
S          S       0.51425   0.22497   0.53427 
S          S       0.98575   0.27503   0.53427 
C          C       0.75688   0.67473   0.26210 
C          C       0.24312   0.32527   0.26210 
C          C       0.00688   0.57527   0.51210 
C          C       0.49312   0.92473   0.51210 
C          C       0.75688   0.17473   0.76210 
C          C       0.24312   0.82527   0.76210 
C          C       0.00688   0.07527   0.01210 
C          C       0.49312   0.42473   0.01210 
C          C       0.25688   0.67473   0.76210 
C          C       0.74312   0.32527   0.76210 
C          C       0.50688   0.57527   0.01210 
C          C       0.99312   0.92473   0.01210 
C          C       0.25688   0.17473   0.26210 
C          C       0.74312   0.82527   0.26210 
C          C       0.50688   0.07527   0.51210 
C          C       0.99312   0.42473   0.51210 
C          C       0.76710   0.63596   0.24609 
C          C       0.23290   0.36404   0.24609 
C          C       0.01710   0.61404   0.49609 
C          C       0.48290   0.88596   0.49609 
C          C       0.76710   0.13596   0.74609 
C          C       0.23290   0.86404   0.74609 
C          C       0.01710   0.11404   0.99609 
C          C       0.48290   0.38596   0.99609 
C          C       0.26710   0.63596   0.74609 
C          C       0.73290   0.36404   0.74609 
C          C       0.51710   0.61404   0.99609 
C          C       0.98290   0.88596   0.99609 
C          C       0.26710   0.13596   0.24609 
C          C       0.73290   0.86404   0.24609 
C          C       0.51710   0.11404   0.49609 
C          C       0.98290   0.38596   0.49609 
C          C       0.78020   0.47817   0.25211 
C          C       0.21980   0.52183   0.25211 
C          C       0.03020   0.77183   0.50211 
C          C       0.46980   0.72817   0.50211 
C          C       0.78020   0.97817   0.75211 
C          C       0.21980   0.02183   0.75211 
C          C       0.03020   0.27183   0.00211 
C          C       0.46980   0.22817   0.00211 
C          C       0.28020   0.47817   0.75211 
C          C       0.71980   0.52183   0.75211 
C          C       0.53020   0.77183   0.00211 
C          C       0.96980   0.72817   0.00211 
C          C       0.28020   0.97817   0.25211 
C          C       0.71980   0.02183   0.25211 
C          C       0.53020   0.27183   0.50211 
C          C       0.96980   0.22817   0.50211 
H          H       0.53107   0.06452   0.06073 
H          H       0.46893   0.93548   0.06073 
H          H       0.78107   0.18548   0.31073 
H          H       0.71893   0.31452   0.31073 
H          H       0.53107   0.56452   0.56073 
H          H       0.46893   0.43548   0.56073 
H          H       0.78107   0.68548   0.81073 
H          H       0.71893   0.81452   0.81073 
H          H       0.03107   0.06452   0.56073 
H          H       0.96893   0.93548   0.56073 
H          H       0.28107   0.18548   0.81073 
H          H       0.21893   0.31452   0.81073 
H          H       0.03107   0.56452   0.06073 
H          H       0.96893   0.43548   0.06073 
H          H       0.28107   0.68548   0.31073 
H          H       0.21893   0.81452   0.31073 
H          H       0.55287   0.36917   0.07700 
H          H       0.44713   0.63083   0.07700 
H          H       0.80287   0.88083   0.32700 
H          H       0.69713   0.61917   0.32700 
H          H       0.55287   0.86917   0.57700 
H          H       0.44713   0.13083   0.57700 
H          H       0.80287   0.38083   0.82700 
H          H       0.69713   0.11917   0.82700 
H          H       0.05287   0.36917   0.57700 
H          H       0.94713   0.63083   0.57700 
H          H       0.30287   0.88083   0.82700 
H          H       0.19713   0.61917   0.82700 
H          H       0.05287   0.86917   0.07700 
H          H       0.94713   0.13083   0.07700 
H          H       0.30287   0.38083   0.32700 
H          H       0.19713   0.11917   0.32700 
H          H       0.57862   0.34203   0.02043 
H          H       0.42138   0.65797   0.02043 
H          H       0.82862   0.90797   0.27043 
H          H       0.67138   0.59203   0.27043 
H          H       0.57862   0.84203   0.52043 
H          H       0.42138   0.15797   0.52043 
H          H       0.82862   0.40797   0.77043 
H          H       0.67138   0.09203   0.77043 
H          H       0.07862   0.34203   0.52043 
H          H       0.92138   0.65797   0.52043 
H          H       0.32862   0.90797   0.77043 
H          H       0.17138   0.59203   0.77043 
H          H       0.07862   0.84203   0.02043 
H          H       0.92138   0.15797   0.02043 
H          H       0.32862   0.40797   0.27043 
H          H       0.17138   0.09203   0.27043 
H          H       0.55682   0.04190   0.00407 
H          H       0.44318   0.95810   0.00407 
H          H       0.80682   0.20810   0.25407 
H          H       0.69318   0.29190   0.25407 
H          H       0.55682   0.54190   0.50407 
H          H       0.44318   0.45810   0.50407 
H          H       0.80682   0.70810   0.75407 
H          H       0.69318   0.79190   0.75407 
H          H       0.05682   0.04190   0.50407 
H          H       0.94318   0.95810   0.50407 
H          H       0.30682   0.20810   0.75407 
H          H       0.19318   0.29190   0.75407 
H          H       0.05682   0.54190   0.00407 
H          H       0.94318   0.45810   0.00407 
H          H       0.30682   0.70810   0.25407 
H          H       0.19318   0.79190   0.25407 
H          H       0.59091   0.57806   0.04979 
H          H       0.40909   0.42194   0.04979 
H          H       0.84091   0.67194   0.29979 
H          H       0.65909   0.82806   0.29979 
H          H       0.59091   0.07806   0.54979 
H          H       0.40909   0.92194   0.54979 
H          H       0.84091   0.17194   0.79979 
H          H       0.65909   0.32806   0.79979 
H          H       0.09091   0.57806   0.54979 
H          H       0.90909   0.42194   0.54979 
H          H       0.34091   0.67194   0.79979 
H          H       0.15909   0.82806   0.79979 
H          H       0.09091   0.07806   0.04979 
H          H       0.90909   0.92194   0.04979 
H          H       0.34091   0.17194   0.29979 
H          H       0.15909   0.32806   0.29979 
H          H       0.57844   0.92713   0.11292 
H          H       0.42156   0.07287   0.11292 
H          H       0.82844   0.32287   0.36292 
H          H       0.67156   0.17713   0.36292 
H          H       0.57844   0.42713   0.61292 
H          H       0.42156   0.57287   0.61292 
H          H       0.82844   0.82287   0.86292 
H          H       0.67156   0.67713   0.86292 
H          H       0.07844   0.92713   0.61292 
H          H       0.92156   0.07287   0.61292 
H          H       0.32844   0.32287   0.86292 
H          H       0.17156   0.17713   0.86292 
H          H       0.07844   0.42713   0.11292 
H          H       0.92156   0.57287   0.11292 
H          H       0.32844   0.82287   0.36292 
H          H       0.17156   0.67713   0.36292 
H          H       0.60096   0.18665   0.13056 
H          H       0.39904   0.81335   0.13056 
H          H       0.85096   0.06335   0.38056 
H          H       0.64904   0.43665   0.38056 
H          H       0.60096   0.68665   0.63056 
H          H       0.39904   0.31335   0.63056 
H          H       0.85096   0.56335   0.88056 
H          H       0.64904   0.93665   0.88056 
H          H       0.10096   0.18665   0.63056 
H          H       0.89904   0.81335   0.63056 
H          H       0.35096   0.06335   0.88056 
H          H       0.14904   0.43665   0.88056 
H          H       0.10096   0.68665   0.13056 
H          H       0.89904   0.31335   0.13056 
H          H       0.35096   0.56335   0.38056 
H          H       0.14904   0.93665   0.38056 
H          H       0.60796   0.72506   0.06114 
H          H       0.39204   0.27494   0.06114 
H          H       0.85796   0.52494   0.31114 
H          H       0.64204   0.97506   0.31114 
H          H       0.60796   0.22506   0.56114 
H          H       0.39204   0.77494   0.56114 
H          H       0.85796   0.02494   0.81114 
H          H       0.64204   0.47506   0.81114 
H          H       0.10796   0.72506   0.56114 
H          H       0.89204   0.27494   0.56114 
H          H       0.35796   0.52494   0.81114 
H          H       0.14204   0.97506   0.81114 
H          H       0.10796   0.22506   0.06114 
H          H       0.89204   0.77494   0.06114 
H          H       0.35796   0.02494   0.31114 
H          H       0.14204   0.47506   0.31114 
H          H       0.64134   0.41563   0.09000 
H          H       0.35866   0.58437   0.09000 
H          H       0.89134   0.83437   0.34000 
H          H       0.60866   0.66563   0.34000 
H          H       0.64134   0.91563   0.59000 
H          H       0.35866   0.08437   0.59000 
H          H       0.89134   0.33437   0.84000 
H          H       0.60866   0.16563   0.84000 
H          H       0.14134   0.41563   0.59000 
H          H       0.85866   0.58437   0.59000 
H          H       0.39134   0.83437   0.84000 
H          H       0.10866   0.66563   0.84000 
H          H       0.14134   0.91563   0.09000 
H          H       0.85866   0.08437   0.09000 
H          H       0.39134   0.33437   0.34000 
H          H       0.10866   0.16563   0.34000 
H          H       0.66320   0.68026   0.10784 
H          H       0.33680   0.31974   0.10784 
H          H       0.91320   0.56974   0.35784 
H          H       0.58680   0.93026   0.35784 
H          H       0.66320   0.18026   0.60784 
H          H       0.33680   0.81974   0.60784 
H          H       0.91320   0.06974   0.85784 
H          H       0.58680   0.43026   0.85784 
H          H       0.16320   0.68026   0.60784 
H          H       0.83680   0.31974   0.60784 
H          H       0.41320   0.56974   0.85784 
H          H       0.08680   0.93026   0.85784 
H          H       0.16320   0.18026   0.10784 
H          H       0.83680   0.81974   0.10784 
H          H       0.41320   0.06974   0.35784 
H          H       0.08680   0.43026   0.35784 
H          H       0.64405   0.37763   0.16560 
H          H       0.35595   0.62237   0.16560 
H          H       0.89405   0.87237   0.41560 
H          H       0.60595   0.62763   0.41560 
H          H       0.64405   0.87763   0.66560 
H          H       0.35595   0.12237   0.66560 
H          H       0.89405   0.37237   0.91560 
H          H       0.60595   0.12763   0.91560 
H          H       0.14405   0.37763   0.66560 
H          H       0.85595   0.62237   0.66560 
H          H       0.39405   0.87237   0.91560 
H          H       0.10595   0.62763   0.91560 
H          H       0.14405   0.87763   0.16560 
H          H       0.85595   0.12237   0.16560 
H          H       0.39405   0.37237   0.41560 
H          H       0.10595   0.12763   0.41560 
H          H       0.65850   0.65857   0.17658 
H          H       0.34150   0.34143   0.17658 
H          H       0.90850   0.59143   0.42658 
H          H       0.59150   0.90857   0.42658 
H          H       0.65850   0.15857   0.67658 
H          H       0.34150   0.84143   0.67658 
H          H       0.90850   0.09143   0.92658 
H          H       0.59150   0.40857   0.92658 
H          H       0.15850   0.65857   0.67658 
H          H       0.84150   0.34143   0.67658 
H          H       0.40850   0.59143   0.92658 
H          H       0.09150   0.90857   0.92658 
H          H       0.15850   0.15857   0.17658 
H          H       0.84150   0.84143   0.17658 
H          H       0.40850   0.09143   0.42658 
H          H       0.09150   0.40857   0.42658 
H          H       0.62481   0.80719   0.15508 
H          H       0.37519   0.19281   0.15508 
H          H       0.87481   0.44281   0.40508 
H          H       0.62519   0.05719   0.40508 
H          H       0.62481   0.30719   0.65508 
H          H       0.37519   0.69281   0.65508 
H          H       0.87481   0.94281   0.90508 
H          H       0.62519   0.55719   0.90508 
H          H       0.12481   0.80719   0.65508 
H          H       0.87519   0.19281   0.65508 
H          H       0.37481   0.44281   0.90508 
H          H       0.12519   0.05719   0.90508 
H          H       0.12481   0.30719   0.15508 
H          H       0.87519   0.69281   0.15508 
H          H       0.37481   0.94281   0.40508 
H          H       0.12519   0.55719   0.40508 
H          H       0.60866   0.03360   0.14355 
H          H       0.39134   0.96640   0.14355 
H          H       0.85866   0.21640   0.39355 
H          H       0.64134   0.28360   0.39355 
H          H       0.60866   0.53360   0.64355 
H          H       0.39134   0.46640   0.64355 
H          H       0.85866   0.71640   0.89355 
H          H       0.64134   0.78360   0.89355 
H          H       0.10866   0.03360   0.64355 
H          H       0.89134   0.96640   0.64355 
H          H       0.35866   0.21640   0.89355 
H          H       0.14134   0.28360   0.89355 
H          H       0.10866   0.53360   0.14355 
H          H       0.89134   0.46640   0.14355 
H          H       0.35866   0.71640   0.39355 
H          H       0.14134   0.78360   0.39355 
H          H       0.61835   0.19247   0.16631 
H          H       0.38165   0.80753   0.16631 
H          H       0.86835   0.05753   0.41631 
H          H       0.63165   0.44247   0.41631 
H          H       0.61835   0.69247   0.66631 
H          H       0.38165   0.30753   0.66631 
H          H       0.86835   0.55753   0.91631 
H          H       0.63165   0.94247   0.91631 
H          H       0.11835   0.19247   0.66631 
H          H       0.88165   0.80753   0.66631 
H          H       0.36835   0.05753   0.91631 
H          H       0.13165   0.44247   0.91631 
H          H       0.11835   0.69247   0.16631 
H          H       0.88165   0.30753   0.16631 
H          H       0.36835   0.55753   0.41631 
H          H       0.13165   0.94247   0.41631 
H          H       0.63162   0.05346   0.05930 
H          H       0.36838   0.94654   0.05930 
H          H       0.88162   0.19654   0.30930 
H          H       0.61838   0.30346   0.30930 
H          H       0.63162   0.55346   0.55930 
H          H       0.36838   0.44654   0.55930 
H          H       0.88162   0.69654   0.80930 
H          H       0.61838   0.80346   0.80930 
H          H       0.13162   0.05346   0.55930 
H          H       0.86838   0.94654   0.55930 
H          H       0.38162   0.19654   0.80930 
H          H       0.11838   0.30346   0.80930 
H          H       0.13162   0.55346   0.05930 
H          H       0.86838   0.44654   0.05930 
H          H       0.38162   0.69654   0.30930 
H          H       0.11838   0.80346   0.30930 
H          H       0.63863   0.71649   0.07510 
H          H       0.36137   0.28351   0.07510 
H          H       0.88863   0.53351   0.32510 
H          H       0.61137   0.96649   0.32510 
H          H       0.63863   0.21649   0.57510 
H          H       0.36137   0.78351   0.57510 
H          H       0.88863   0.03351   0.82510 
H          H       0.61137   0.46649   0.82510 
H          H       0.13863   0.71649   0.57510 
H          H       0.86137   0.28351   0.57510 
H          H       0.38863   0.53351   0.82510 
H          H       0.11137   0.96649   0.82510 
H          H       0.13863   0.21649   0.07510 
H          H       0.86137   0.78351   0.07510 
H          H       0.38863   0.03351   0.32510 
H          H       0.11137   0.46649   0.32510 
H          H       0.64209   0.13799   0.08301 
H          H       0.35791   0.86201   0.08301 
H          H       0.89209   0.11201   0.33301 
H          H       0.60791   0.38799   0.33301 
H          H       0.64209   0.63799   0.58301 
H          H       0.35791   0.36201   0.58301 
H          H       0.89209   0.61201   0.83301 
H          H       0.60791   0.88799   0.83301 
H          H       0.14209   0.13799   0.58301 
H          H       0.85791   0.86201   0.58301 
H          H       0.39209   0.11201   0.83301 
H          H       0.10791   0.38799   0.83301 
H          H       0.14209   0.63799   0.08301 
H          H       0.85791   0.36201   0.08301 
H          H       0.39209   0.61201   0.33301 
H          H       0.10791   0.88799   0.33301 
H          H       0.67050   0.91862   0.20539 
H          H       0.32950   0.08138   0.20539 
H          H       0.92050   0.33138   0.45539 
H          H       0.57950   0.16862   0.45539 
H          H       0.67050   0.41862   0.70539 
H          H       0.32950   0.58138   0.70539 
H          H       0.92050   0.83138   0.95539 
H          H       0.57950   0.66862   0.95539 
H          H       0.17050   0.91862   0.70539 
H          H       0.82950   0.08138   0.70539 
H          H       0.42050   0.33138   0.95539 
H          H       0.07950   0.16862   0.95539 
H          H       0.17050   0.41862   0.20539 
H          H       0.82950   0.58138   0.20539 
H          H       0.42050   0.83138   0.45539 
H          H       0.07950   0.66862   0.45539 
H          H       0.69266   0.21895   0.22129 
H          H       0.30734   0.78105   0.22129 
H          H       0.94266   0.03105   0.47129 
H          H       0.55734   0.46895   0.47129 
H          H       0.69266   0.71895   0.72129 
H          H       0.30734   0.28105   0.72129 
H          H       0.94266   0.53105   0.97129 
H          H       0.55734   0.96895   0.97129 
H          H       0.19266   0.21895   0.72129 
H          H       0.80734   0.78105   0.72129 
H          H       0.44266   0.03105   0.97129 
H          H       0.05734   0.46895   0.97129 
H          H       0.19266   0.71895   0.22129 
H          H       0.80734   0.28105   0.22129 
H          H       0.44266   0.53105   0.47129 
H          H       0.05734   0.96895   0.47129 
H          H       0.71617   0.25205   0.16309 
H          H       0.28383   0.74795   0.16309 
H          H       0.96617   0.99795   0.41309 
H          H       0.53383   0.50205   0.41309 
H          H       0.71617   0.75205   0.66309 
H          H       0.28383   0.24795   0.66309 
H          H       0.96617   0.49795   0.91309 
H          H       0.53383   0.00205   0.91309 
H          H       0.21617   0.25205   0.66309 
H          H       0.78383   0.74795   0.66309 
H          H       0.46617   0.99795   0.91309 
H          H       0.03383   0.50205   0.91309 
H          H       0.21617   0.75205   0.16309 
H          H       0.78383   0.24795   0.16309 
H          H       0.46617   0.49795   0.41309 
H          H       0.03383   0.00205   0.41309 
H          H       0.69399   0.95751   0.14718 
H          H       0.30601   0.04249   0.14718 
H          H       0.94399   0.29249   0.39718 
H          H       0.55601   0.20751   0.39718 
H          H       0.69399   0.45751   0.64718 
H          H       0.30601   0.54249   0.64718 
H          H       0.94399   0.79249   0.89718 
H          H       0.55601   0.70751   0.89718 
H          H       0.19399   0.95751   0.64718 
H          H       0.80601   0.04249   0.64718 
H          H       0.44399   0.29249   0.89718 
H          H       0.05601   0.20751   0.89718 
H          H       0.19399   0.45751   0.14718 
H          H       0.80601   0.54249   0.14718 
H          H       0.44399   0.79249   0.39718 
H          H       0.05601   0.70751   0.39718 
H          H       0.79165   0.97132   0.23264 
H          H       0.20835   0.02868   0.23264 
H          H       0.04165   0.27868   0.48264 
H          H       0.45835   0.22132   0.48264 
H          H       0.79165   0.47132   0.73264 
H          H       0.20835   0.52868   0.73264 
H          H       0.04165   0.77868   0.98264 
H          H       0.45835   0.72132   0.98264 
H          H       0.29165   0.97132   0.73264 
H          H       0.70835   0.02868   0.73264 
H          H       0.54165   0.27868   0.98264 
H          H       0.95835   0.22132   0.98264 
H          H       0.29165   0.47132   0.23264 
H          H       0.70835   0.52868   0.23264 
H          H       0.54165   0.77868   0.48264 
H          H       0.95835   0.72132   0.48264 
H          H       0.78983   0.43146   0.24094 
H          H       0.21017   0.56854   0.24094 
H          H       0.03983   0.81854   0.49094 
H          H       0.46017   0.68146   0.49094 
H          H       0.78983   0.93146   0.74094 
H          H       0.21017   0.06854   0.74094 
H          H       0.03983   0.31854   0.99094 
H          H       0.46017   0.18146   0.99094 
H          H       0.28983   0.43146   0.74094 
H          H       0.71017   0.56854   0.74094 
H          H       0.53983   0.81854   0.99094 
H          H       0.96017   0.68146   0.99094 
H          H       0.28983   0.93146   0.24094 
H          H       0.71017   0.06854   0.24094 
H          H       0.53983   0.31854   0.49094 
H          H       0.96017   0.18146   0.49094 
