data_T-COF_2
_audit_creation_date              0000-00-00
_audit_creation_method            'LanYouShi'
_symmetry_space_group_name_H-M    'P1'
_cell_length_a                    21.9372005
_cell_length_b                    21.9372005
_cell_length_c                    3.4000001
_cell_angle_alpha                 90.0000000
_cell_angle_beta                  90.0000000
_cell_angle_gamma                 120.0000000
loop_
_atom_site_label
_atom_site_type_symbol
_atom_site_fract_x
_atom_site_fract_y
_atom_site_fract_z
_atom_site_U_iso_or_equiv
_atom_site_adp_type
_atom_site_occupancy
        O1          O  0.5491011  0.4720151  1.4705882    0.00000       Uiso       1.00
        O2          O  0.4229132  0.4508973  1.4705882    0.00000       Uiso       1.00
        O3          O  0.5279833  0.5770852  1.4705882    0.00000       Uiso       1.00
        B1          B  0.5750688  0.5478166  1.4705882    0.00000       Uiso       1.00
        B2          B  0.4727471  0.4249296  1.4705883    0.00000       Uiso       1.00
        B3          B  0.4521818  0.5272513  1.4705882    0.00000       Uiso       1.00
        O4          O  0.1175608  0.8613116  1.4728070    0.00000       Uiso       1.00
        O5          O  0.2437517  0.8824376  1.4726779    0.00000       Uiso       1.00
        O6          O  0.1386869  0.7562467  1.4725094    0.00000       Uiso       1.00
        B4          B  0.0915976  0.7855108  1.4726520    0.00000       Uiso       1.00
        B5          B  0.1939142  0.9084008  1.4728162    0.00000       Uiso       1.00
        B6          B  0.2144876  0.8060843  1.4725263    0.00000       Uiso       1.00
        C1          C  0.7703332  0.7133344  1.4711475    0.00000       Uiso       1.00
        C2          C  0.6520049  0.5968362  1.4708887    0.00000       Uiso       1.00
        S1          S  0.7185065  0.5718868  1.4713018    0.00000       Uiso       1.00
        C3          C  0.7948375  0.6583446  1.4713721    0.00000       Uiso       1.00
        C4          C  0.6885868  0.6781057  1.4709833    0.00000       Uiso       1.00
        C5          C  0.0146646  0.7364970  1.4723629    0.00000       Uiso       1.00
        S2          S  0.9481565  0.7614428  1.4720870    0.00000       Uiso       1.00
        C6          C  0.8718309  0.6749786  1.4718713    0.00000       Uiso       1.00
        C7          C  0.8963493  0.6200026  1.4718807    0.00000       Uiso       1.00
        C8          C  0.9780927  0.6552279  1.4719847    0.00000       Uiso       1.00
        H1          H  0.6590900  0.7087442  1.4708809    0.00000       Uiso       1.00
        H2          H  0.0075909  0.6246128  1.4718215    0.00000       Uiso       1.00
        H3          H  0.8077152  0.7726369  1.4711369    0.00000       Uiso       1.00
        H4          H  0.8589506  0.5606583  1.4717541    0.00000       Uiso       1.00
        C9          C  0.2866640  0.5569980  1.4711473    0.00000       Uiso       1.00
       C10          C  0.4031622  0.5551679  1.4708887    0.00000       Uiso       1.00
        S3          S  0.4281116  0.6466188  1.4713019    0.00000       Uiso       1.00
       C11          C  0.3416539  0.6364921  1.4713721    0.00000       Uiso       1.00
       C12          C  0.3218927  0.5104802  1.4709833    0.00000       Uiso       1.00
       C13          C  0.2635015  0.7781651  1.4723630    0.00000       Uiso       1.00
        S4          S  0.2385557  0.6867129  1.4720871    0.00000       Uiso       1.00
       C14          C  0.3250199  0.6968516  1.4718713    0.00000       Uiso       1.00
       C15          C  0.3799959  0.7763458  1.4718810    0.00000       Uiso       1.00
       C16          C  0.3447705  0.8228639  1.4719851    0.00000       Uiso       1.00
        H5          H  0.2912543  0.4503451  1.4708807    0.00000       Uiso       1.00
        H6          H  0.3753857  0.8829756  1.4718218    0.00000       Uiso       1.00
        H7          H  0.2273615  0.5350775  1.4711368    0.00000       Uiso       1.00
        H8          H  0.4393402  0.7982915  1.4717543    0.00000       Uiso       1.00
       C17          C  0.4430004  0.2296651  1.4711486    0.00000       Uiso       1.00
       C18          C  0.4448306  0.3479935  1.4708893    0.00000       Uiso       1.00
        S5          S  0.3533796  0.2814919  1.4713027    0.00000       Uiso       1.00
       C19          C  0.3635063  0.2051610  1.4713734    0.00000       Uiso       1.00
       C20          C  0.4895182  0.3114116  1.4709841    0.00000       Uiso       1.00
       C21          C  0.2218334  0.9853339  1.4723653    0.00000       Uiso       1.00
        S6          S  0.3132854  0.0518418  1.4720893    0.00000       Uiso       1.00
       C22          C  0.3031468  0.1281675  1.4718730    0.00000       Uiso       1.00
       C23          C  0.2236525  0.1036492  1.4718827    0.00000       Uiso       1.00
       C24          C  0.1771344  0.0219058  1.4719871    0.00000       Uiso       1.00
        H9          H  0.5496533  0.3409083  1.4708816    0.00000       Uiso       1.00
       H10          H  0.1170229  0.9924076  1.4718239    0.00000       Uiso       1.00
       H11          H  0.4649209  0.1922832  1.4711384    0.00000       Uiso       1.00
       H12          H  0.2017069  0.1410478  1.4717556    0.00000       Uiso       1.00
