data_crystal
 
_cell_length_a    21.69060
_cell_length_b    21.69060
_cell_length_c    6.85780
_cell_angle_alpha 90.00000
_cell_angle_beta  90.00000
_cell_angle_gamma 90.00000
 
_space_group_name_Hall 'P 1'
_space_group_name_H-M_alt  'P 1'
 
loop_
_symmetry_equiv_pos_as_xyz
 'x,y,z' 
 
loop_
_atom_site_label
_atom_site_type_symbol
_atom_site_fract_x
_atom_site_fract_y
_atom_site_fract_z
H          H       0.35242   0.78573   0.25000 
H          H       0.64758   0.21427   0.25000 
H          H       0.21427   0.35242   0.25000 
H          H       0.78573   0.64758   0.25000 
H          H       0.64758   0.78573   0.25000 
H          H       0.35242   0.21427   0.25000 
H          H       0.78573   0.35242   0.25000 
H          H       0.21427   0.64758   0.25000 
C          C       0.36641   0.59528   0.25000 
C          C       0.63359   0.40472   0.25000 
C          C       0.40472   0.36641   0.25000 
C          C       0.59528   0.63359   0.25000 
C          C       0.63359   0.59528   0.25000 
C          C       0.36641   0.40472   0.25000 
C          C       0.59528   0.36641   0.25000 
C          C       0.40472   0.63359   0.25000 
C          C       0.39269   0.54706   0.25000 
C          C       0.60731   0.45294   0.25000 
C          C       0.45294   0.39269   0.25000 
C          C       0.54706   0.60731   0.25000 
C          C       0.60731   0.54706   0.25000 
C          C       0.39269   0.45294   0.25000 
C          C       0.54706   0.39269   0.25000 
C          C       0.45294   0.60731   0.25000 
C          C       0.29748   0.66204   0.25000 
C          C       0.70252   0.33796   0.25000 
C          C       0.33796   0.29748   0.25000 
C          C       0.66204   0.70252   0.25000 
C          C       0.70252   0.66204   0.25000 
C          C       0.29748   0.33796   0.25000 
C          C       0.66204   0.29748   0.25000 
C          C       0.33796   0.70252   0.25000 
C          C       0.31219   0.60762   0.25000 
C          C       0.68781   0.39238   0.25000 
C          C       0.39238   0.31219   0.25000 
C          C       0.60762   0.68781   0.25000 
C          C       0.68781   0.60762   0.25000 
C          C       0.31219   0.39238   0.25000 
C          C       0.60762   0.31219   0.25000 
C          C       0.39238   0.68781   0.25000 
C          C       0.90359   0.86505   0.25000 
C          C       0.09641   0.13495   0.25000 
C          C       0.13495   0.90359   0.25000 
C          C       0.86505   0.09641   0.25000 
C          C       0.09641   0.86505   0.25000 
C          C       0.90359   0.13495   0.25000 
C          C       0.86505   0.90359   0.25000 
C          C       0.13495   0.09641   0.25000 
C          C       0.95205   0.89124   0.25000 
C          C       0.04795   0.10876   0.25000 
C          C       0.10876   0.95205   0.25000 
C          C       0.89124   0.04795   0.25000 
C          C       0.04795   0.89124   0.25000 
C          C       0.95205   0.10876   0.25000 
C          C       0.89124   0.95205   0.25000 
C          C       0.10876   0.04795   0.25000 
C          C       0.83670   0.79596   0.25000 
C          C       0.16330   0.20404   0.25000 
C          C       0.20404   0.83670   0.25000 
C          C       0.79596   0.16330   0.25000 
C          C       0.16330   0.79596   0.25000 
C          C       0.83670   0.20404   0.25000 
C          C       0.79596   0.83670   0.25000 
C          C       0.20404   0.16330   0.25000 
C          C       0.89098   0.81091   0.25000 
C          C       0.10902   0.18909   0.25000 
C          C       0.18909   0.89098   0.25000 
C          C       0.81091   0.10902   0.25000 
C          C       0.10902   0.81091   0.25000 
C          C       0.89098   0.18909   0.25000 
C          C       0.81091   0.89098   0.25000 
C          C       0.18909   0.10902   0.25000 
H          H       0.71590   0.57786   0.25000 
H          H       0.28410   0.42214   0.25000 
H          H       0.42214   0.71590   0.25000 
H          H       0.57786   0.28410   0.25000 
H          H       0.28410   0.57786   0.25000 
H          H       0.71590   0.42214   0.25000 
H          H       0.57786   0.71590   0.25000 
H          H       0.42214   0.28410   0.25000 
F          F       0.07212   0.22454   0.25000 
F          F       0.92788   0.77546   0.25000 
F          F       0.77546   0.07212   0.25000 
F          F       0.22454   0.92788   0.25000 
F          F       0.92788   0.22454   0.25000 
F          F       0.07212   0.77546   0.25000 
F          F       0.22454   0.07212   0.25000 
F          F       0.77546   0.92788   0.25000 
C          C       0.32362   0.75666   0.25000 
C          C       0.67638   0.24334   0.25000 
C          C       0.24334   0.32362   0.25000 
C          C       0.75666   0.67638   0.25000 
C          C       0.67638   0.75666   0.25000 
C          C       0.32362   0.24334   0.25000 
C          C       0.75666   0.32362   0.25000 
C          C       0.24334   0.67638   0.25000 
C          C       0.27002   0.77154   0.25000 
C          C       0.72998   0.22846   0.25000 
C          C       0.22846   0.27002   0.25000 
C          C       0.77154   0.72998   0.25000 
C          C       0.72998   0.77154   0.25000 
C          C       0.27002   0.22846   0.25000 
C          C       0.77154   0.27002   0.25000 
C          C       0.22846   0.72998   0.25000 
O          O       0.25600   0.82558   0.25000 
O          O       0.74400   0.17442   0.25000 
O          O       0.17442   0.25600   0.25000 
O          O       0.82558   0.74400   0.25000 
O          O       0.74400   0.82558   0.25000 
O          O       0.25600   0.17442   0.25000 
O          O       0.82558   0.25600   0.25000 
O          O       0.17442   0.74400   0.25000 
N          N       0.36743   0.50000   0.25000 
N          N       0.63257   0.50000   0.25000 
N          N       0.50000   0.36743   0.25000 
N          N       0.50000   0.63257   0.25000 
N          N       0.00000   0.86652   0.25000 
N          N       0.00000   0.13348   0.25000 
N          N       0.13348   0.00000   0.25000 
N          N       0.86652   0.00000   0.25000 
N          N       0.05519   0.94481   0.25000 
N          N       0.94481   0.05519   0.25000 
N          N       0.05519   0.05519   0.25000 
N          N       0.94481   0.94481   0.25000 
N          N       0.44656   0.55344   0.25000 
N          N       0.55344   0.44656   0.25000 
N          N       0.44656   0.44656   0.25000 
N          N       0.55344   0.55344   0.25000 
Cu         Cu      0.00000   0.00000   0.25000 
Ni         Ni      0.50000   0.50000   0.25000 
H          H       0.35242   0.78573   0.75000 
H          H       0.64758   0.21427   0.75000 
H          H       0.21427   0.35242   0.75000 
H          H       0.78573   0.64758   0.75000 
H          H       0.64758   0.78573   0.75000 
H          H       0.35242   0.21427   0.75000 
H          H       0.78573   0.35242   0.75000 
H          H       0.21427   0.64758   0.75000 
C          C       0.36641   0.59528   0.75000 
C          C       0.63359   0.40472   0.75000 
C          C       0.40472   0.36641   0.75000 
C          C       0.59528   0.63359   0.75000 
C          C       0.63359   0.59528   0.75000 
C          C       0.36641   0.40472   0.75000 
C          C       0.59528   0.36641   0.75000 
C          C       0.40472   0.63359   0.75000 
C          C       0.39269   0.54706   0.75000 
C          C       0.60731   0.45294   0.75000 
C          C       0.45294   0.39269   0.75000 
C          C       0.54706   0.60731   0.75000 
C          C       0.60731   0.54706   0.75000 
C          C       0.39269   0.45294   0.75000 
C          C       0.54706   0.39269   0.75000 
C          C       0.45294   0.60731   0.75000 
C          C       0.29748   0.66204   0.75000 
C          C       0.70252   0.33796   0.75000 
C          C       0.33796   0.29748   0.75000 
C          C       0.66204   0.70252   0.75000 
C          C       0.70252   0.66204   0.75000 
C          C       0.29748   0.33796   0.75000 
C          C       0.66204   0.29748   0.75000 
C          C       0.33796   0.70252   0.75000 
C          C       0.31219   0.60762   0.75000 
C          C       0.68781   0.39238   0.75000 
C          C       0.39238   0.31219   0.75000 
C          C       0.60762   0.68781   0.75000 
C          C       0.68781   0.60762   0.75000 
C          C       0.31219   0.39238   0.75000 
C          C       0.60762   0.31219   0.75000 
C          C       0.39238   0.68781   0.75000 
C          C       0.90359   0.86505   0.75000 
C          C       0.09641   0.13495   0.75000 
C          C       0.13495   0.90359   0.75000 
C          C       0.86505   0.09641   0.75000 
C          C       0.09641   0.86505   0.75000 
C          C       0.90359   0.13495   0.75000 
C          C       0.86505   0.90359   0.75000 
C          C       0.13495   0.09641   0.75000 
C          C       0.95205   0.89124   0.75000 
C          C       0.04795   0.10876   0.75000 
C          C       0.10876   0.95205   0.75000 
C          C       0.89124   0.04795   0.75000 
C          C       0.04795   0.89124   0.75000 
C          C       0.95205   0.10876   0.75000 
C          C       0.89124   0.95205   0.75000 
C          C       0.10876   0.04795   0.75000 
C          C       0.83670   0.79596   0.75000 
C          C       0.16330   0.20404   0.75000 
C          C       0.20404   0.83670   0.75000 
C          C       0.79596   0.16330   0.75000 
C          C       0.16330   0.79596   0.75000 
C          C       0.83670   0.20404   0.75000 
C          C       0.79596   0.83670   0.75000 
C          C       0.20404   0.16330   0.75000 
C          C       0.89098   0.81091   0.75000 
C          C       0.10902   0.18909   0.75000 
C          C       0.18909   0.89098   0.75000 
C          C       0.81091   0.10902   0.75000 
C          C       0.10902   0.81091   0.75000 
C          C       0.89098   0.18909   0.75000 
C          C       0.81091   0.89098   0.75000 
C          C       0.18909   0.10902   0.75000 
H          H       0.71590   0.57786   0.75000 
H          H       0.28410   0.42214   0.75000 
H          H       0.42214   0.71590   0.75000 
H          H       0.57786   0.28410   0.75000 
H          H       0.28410   0.57786   0.75000 
H          H       0.71590   0.42214   0.75000 
H          H       0.57786   0.71590   0.75000 
H          H       0.42214   0.28410   0.75000 
F          F       0.07212   0.22454   0.75000 
F          F       0.92788   0.77546   0.75000 
F          F       0.77546   0.07212   0.75000 
F          F       0.22454   0.92788   0.75000 
F          F       0.92788   0.22454   0.75000 
F          F       0.07212   0.77546   0.75000 
F          F       0.22454   0.07212   0.75000 
F          F       0.77546   0.92788   0.75000 
C          C       0.32362   0.75666   0.75000 
C          C       0.67638   0.24334   0.75000 
C          C       0.24334   0.32362   0.75000 
C          C       0.75666   0.67638   0.75000 
C          C       0.67638   0.75666   0.75000 
C          C       0.32362   0.24334   0.75000 
C          C       0.75666   0.32362   0.75000 
C          C       0.24334   0.67638   0.75000 
C          C       0.27002   0.77154   0.75000 
C          C       0.72998   0.22846   0.75000 
C          C       0.22846   0.27002   0.75000 
C          C       0.77154   0.72998   0.75000 
C          C       0.72998   0.77154   0.75000 
C          C       0.27002   0.22846   0.75000 
C          C       0.77154   0.27002   0.75000 
C          C       0.22846   0.72998   0.75000 
O          O       0.25600   0.82558   0.75000 
O          O       0.74400   0.17442   0.75000 
O          O       0.17442   0.25600   0.75000 
O          O       0.82558   0.74400   0.75000 
O          O       0.74400   0.82558   0.75000 
O          O       0.25600   0.17442   0.75000 
O          O       0.82558   0.25600   0.75000 
O          O       0.17442   0.74400   0.75000 
N          N       0.36743   0.50000   0.75000 
N          N       0.63257   0.50000   0.75000 
N          N       0.50000   0.36743   0.75000 
N          N       0.50000   0.63257   0.75000 
N          N       0.00000   0.86652   0.75000 
N          N       0.00000   0.13348   0.75000 
N          N       0.13348   0.00000   0.75000 
N          N       0.86652   0.00000   0.75000 
N          N       0.05519   0.94481   0.75000 
N          N       0.94481   0.05519   0.75000 
N          N       0.05519   0.05519   0.75000 
N          N       0.94481   0.94481   0.75000 
N          N       0.44656   0.55344   0.75000 
N          N       0.55344   0.44656   0.75000 
N          N       0.44656   0.44656   0.75000 
N          N       0.55344   0.55344   0.75000 
Cu         Cu      0.00000   0.00000   0.75000 
Ni         Ni      0.50000   0.50000   0.75000 
