data_crystal
 
_cell_length_a    108.13000
_cell_length_b    108.13000
_cell_length_c    7.08000
_cell_angle_alpha 90.00000
_cell_angle_beta  90.00000
_cell_angle_gamma 120.00000
 
_space_group_name_Hall 'P 1'
_space_group_name_H-M_alt  'P 1'
 
loop_
_symmetry_equiv_pos_as_xyz
 'x,y,z' 
 
loop_
_atom_site_label
_atom_site_type_symbol
_atom_site_fract_x
_atom_site_fract_y
_atom_site_fract_z
N          N       0.10496   0.23056   0.31008 
C          C       0.09705   0.21658   0.31600 
C          C       0.12756   0.25195   0.29029 
C          C       0.11622   0.19197   0.32972 
C          C       0.12267   0.18398   0.32395 
C          C       0.13672   0.19007   0.28325 
C          C       0.14433   0.20429   0.24386 
C          C       0.13796   0.21231   0.25041 
N          N       0.14277   0.18141   0.28069 
C          C       0.15586   0.18560   0.29617 
N          N       0.10321   0.20876   0.31199 
C          C       0.11716   0.21480   0.30117 
C          C       0.08178   0.20986   0.31768 
C          C       0.14174   0.25822   0.24896 
C          C       0.14982   0.27261   0.23762 
C          C       0.14393   0.28093   0.26566 
C          C       0.12984   0.27475   0.31045 
C          C       0.12171   0.26036   0.32199 
N          N       0.15268   0.29561   0.25411 
C          C       0.14856   0.30434   0.21863 
C          C       0.15832   0.31940   0.21829 
C          C       0.17285   0.32504   0.22121 
C          C       0.18117   0.00598   0.20791 
N          N       0.12494   0.22876   0.29430 
C          C       0.11893   0.23671   0.29968 
C          C       0.12385   0.20625   0.29392 
C          C       0.07523   0.21776   0.29488 
C          C       0.06081   0.21126   0.28551 
C          C       0.05274   0.19687   0.29704 
C          C       0.05918   0.18896   0.32580 
C          C       0.07358   0.19541   0.33554 
N          N       0.03804   0.19068   0.28176 
C          C       0.02976   0.17817   0.22724 
C          C       0.01464   0.17244   0.22340 
C          C       0.00864   0.18099   0.22373 
C          C       0.32738   0.17524   0.21978 
N          N       0.22850   0.10338   0.31293 
C          C       0.23640   0.11735   0.31991 
C          C       0.20591   0.08199   0.29118 
C          C       0.21726   0.14200   0.33119 
C          C       0.21082   0.14999   0.32492 
C          C       0.19677   0.14390   0.28391 
C          C       0.18916   0.12968   0.24461 
C          C       0.19553   0.12165   0.25182 
N          N       0.19071   0.15256   0.28097 
C          C       0.17763   0.14838   0.29519 
N          N       0.23028   0.12518   0.31543 
C          C       0.21631   0.11915   0.30331 
C          C       0.25168   0.12402   0.32311 
C          C       0.19160   0.07567   0.25759 
C          C       0.18353   0.06128   0.24560 
C          C       0.18958   0.05301   0.26493 
C          C       0.20380   0.05924   0.30212 
C          C       0.21189   0.07361   0.31448 
N          N       0.18089   0.03833   0.25210 
C          C       0.18503   0.02973   0.20916 
C          C       0.17541   0.01465   0.20877 
C          C       0.16087   0.00890   0.21130 
C          C       0.15268   0.32819   0.21656 
N          N       0.20855   0.10519   0.29561 
C          C       0.21451   0.09723   0.30122 
C          C       0.20964   0.12771   0.29564 
C          C       0.25817   0.11602   0.30647 
C          C       0.27258   0.12243   0.29757 
C          C       0.28071   0.13683   0.30333 
C          C       0.27434   0.14487   0.32664 
C          C       0.25993   0.13850   0.33605 
N          N       0.29538   0.14290   0.28687 
C          C       0.30370   0.15525   0.22718 
C          C       0.31877   0.16080   0.22163 
C          C       0.32458   0.15208   0.21977 
C          C       0.00620   0.15798   0.22099 
N          N       0.43808   0.22974   0.30828 
C          C       0.43013   0.21578   0.31489 
C          C       0.46070   0.25107   0.28885 
C          C       0.44902   0.19093   0.33204 
C          C       0.45539   0.18287   0.33058 
C          C       0.46959   0.18893   0.29956 
C          C       0.47742   0.20321   0.26436 
C          C       0.47110   0.21131   0.26598 
N          N       0.47558   0.18019   0.30081 
C          C       0.48852   0.18424   0.32897 
C          C       0.49377   0.17443   0.32305 
C          C       0.48495   0.15994   0.30490 
C          C       0.49089   0.15139   0.30411 
O          O       0.52853   0.17723   0.33725 
C          C       0.53707   0.18987   0.24354 
N          N       0.43622   0.20789   0.31324 
C          C       0.45020   0.21388   0.30430 
C          C       0.41485   0.20919   0.31583 
C          C       0.47494   0.25734   0.25151 
C          C       0.48300   0.27172   0.23747 
C          C       0.47701   0.28002   0.25872 
C          C       0.46286   0.27385   0.30018 
C          C       0.45477   0.25948   0.31449 
N          N       0.48570   0.29468   0.24413 
C          C       0.48157   0.30331   0.20267 
C          C       0.49126   0.31838   0.20144 
C          C       0.50578   0.32405   0.20410 
C          C       0.51527   0.00674   0.33305 
O          O       0.49037   0.01978   0.33261 
C          C       0.47756   0.01562   0.24316 
N          N       0.45801   0.22784   0.29668 
C          C       0.45207   0.23584   0.29946 
C          C       0.45684   0.20526   0.30082 
C          C       0.40846   0.21725   0.29544 
C          C       0.39406   0.21093   0.28610 
C          C       0.38584   0.19654   0.29503 
C          C       0.39211   0.18845   0.32165 
C          C       0.40651   0.19473   0.33155 
N          N       0.37116   0.19055   0.27968 
C          C       0.36277   0.17814   0.22263 
C          C       0.34769   0.17261   0.21934 
C          C       0.34187   0.18133   0.21958 
C          C       0.66211   0.17631   0.32444 
O          O       0.64924   0.13839   0.33109 
C          C       0.65359   0.12966   0.24800 
N          N       0.56315   0.10466   0.18257 
C          C       0.57075   0.11866   0.18160 
C          C       0.54092   0.08282   0.19123 
C          C       0.55075   0.14246   0.19237 
C          C       0.54397   0.15008   0.20947 
C          C       0.52955   0.14338   0.21901 
C          C       0.52181   0.12889   0.20380 
C          C       0.52854   0.12123   0.18666 
N          N       0.52320   0.15171   0.24110 
C          C       0.51079   0.14748   0.29927 
C          C       0.50531   0.15704   0.31013 
C          C       0.51409   0.17151   0.32190 
C          C       0.50816   0.18000   0.33325 
O          O       0.47047   0.15434   0.29380 
C          C       0.46241   0.14131   0.20639 
N          N       0.56421   0.12613   0.17934 
C          C       0.55020   0.11971   0.17647 
C          C       0.58604   0.12570   0.19214 
C          C       0.52645   0.07586   0.17125 
C          C       0.51867   0.06150   0.19008 
C          C       0.52511   0.05386   0.23117 
C          C       0.53962   0.06070   0.24720 
C          C       0.54743   0.07506   0.22753 
N          N       0.51650   0.03923   0.25254 
C          C       0.51999   0.03081   0.32333 
C          C       0.51003   0.01585   0.32992 
C          C       0.49557   0.01057   0.32864 
C          C       0.48559   0.32713   0.20064 
N          N       0.54274   0.10570   0.17686 
C          C       0.54915   0.09810   0.17988 
C          C       0.54308   0.12791   0.18332 
C          C       0.59289   0.11801   0.18201 
C          C       0.60726   0.12458   0.19934 
C          C       0.61503   0.13883   0.22912 
C          C       0.60831   0.14666   0.23450 
C          C       0.59392   0.14012   0.21646 
N          N       0.62968   0.14488   0.24956 
C          C       0.63807   0.15684   0.31879 
C          C       0.65307   0.16194   0.32501 
C          C       0.65841   0.15282   0.32611 
C          C       0.33908   0.15817   0.21780 
N          N       0.77272   0.22984   0.25316 
C          C       0.76487   0.21590   0.24763 
C          C       0.79524   0.25135   0.24871 
C          C       0.78401   0.19132   0.21419 
C          C       0.79056   0.18343   0.21847 
C          C       0.80497   0.18988   0.22857 
C          C       0.81292   0.20441   0.22620 
C          C       0.80643   0.21232   0.22184 
N          N       0.81110   0.18132   0.24061 
C          C       0.82325   0.18506   0.30460 
C          C       0.82859   0.17538   0.30713 
C          C       0.81970   0.16089   0.30403 
C          C       0.82556   0.15231   0.31112 
O          O       0.86338   0.17806   0.30191 
C          C       0.87155   0.19108   0.21477 
N          N       0.77108   0.20814   0.23401 
C          C       0.78507   0.21432   0.22560 
C          C       0.74959   0.20914   0.25792 
C          C       0.80949   0.25796   0.21039 
C          C       0.81747   0.27238   0.21161 
C          C       0.81139   0.28040   0.24945 
C          C       0.79724   0.27387   0.29219 
C          C       0.78923   0.25946   0.29102 
N          N       0.81997   0.29513   0.24719 
C          C       0.81562   0.30379   0.21993 
C          C       0.82516   0.31889   0.22478 
C          C       0.83972   0.32478   0.22712 
C          C       0.84698   0.00481   0.21482 
N          N       0.79278   0.22826   0.23029 
C          C       0.78671   0.23613   0.24404 
C          C       0.79189   0.20586   0.21852 
C          C       0.74320   0.21712   0.28601 
C          C       0.72880   0.21076   0.29611 
C          C       0.72056   0.19642   0.28020 
C          C       0.72686   0.18839   0.24930 
C          C       0.74127   0.19471   0.23908 
N          N       0.70587   0.19054   0.29039 
C          C       0.69693   0.17775   0.32571 
C          C       0.68192   0.17279   0.32652 
C          C       0.67654   0.18190   0.31924 
C          C       0.99413   0.17470   0.22338 
N          N       0.89525   0.10231   0.30303 
C          C       0.90327   0.11627   0.31068 
C          C       0.87254   0.08107   0.28197 
C          C       0.88457   0.14131   0.32448 
C          C       0.87826   0.14942   0.32119 
C          C       0.86411   0.14341   0.28682 
C          C       0.85629   0.12916   0.24997 
C          C       0.86254   0.12101   0.25375 
N          N       0.85815   0.15216   0.28822 
C          C       0.84518   0.14806   0.31371 
C          C       0.83998   0.15789   0.31061 
C          C       0.84888   0.17242   0.30517 
C          C       0.84299   0.18099   0.30970 
O          O       0.80521   0.15532   0.30363 
C          C       0.79691   0.14227   0.21785 
N          N       0.89722   0.12420   0.30812 
C          C       0.88329   0.11829   0.29714 
C          C       0.91852   0.12286   0.31311 
C          C       0.85841   0.07494   0.23869 
C          C       0.85019   0.06056   0.22746 
C          C       0.85592   0.05212   0.25749 
C          C       0.86997   0.05816   0.30406 
C          C       0.87822   0.07253   0.31541 
N          N       0.84706   0.03745   0.24723 
C          C       0.85110   0.02866   0.21164 
C          C       0.84134   0.01360   0.21508 
C          C       0.82683   0.00797   0.22123 
C          C       0.81927   0.32744   0.22663 
N          N       0.87540   0.10435   0.28865 
C          C       0.88129   0.09629   0.29241 
C          C       0.87673   0.12699   0.29196 
C          C       0.92498   0.11495   0.28424 
C          C       0.93940   0.12138   0.27525 
C          C       0.94755   0.13573   0.29322 
C          C       0.94119   0.14363   0.32837 
C          C       0.92679   0.13724   0.33780 
N          N       0.96224   0.14188   0.27793 
C          C       0.97057   0.15452   0.22794 
C          C       0.98568   0.16024   0.22384 
C          C       0.99169   0.15169   0.22204 
C          C       0.67284   0.15842   0.33140 
O          O       0.68564   0.19635   0.31410 
C          C       0.68110   0.20468   0.22426 
N          N       0.10463   0.56236   0.24460 
C          C       0.09676   0.54841   0.24069 
C          C       0.12715   0.58387   0.24006 
C          C       0.11594   0.52380   0.22046 
C          C       0.12251   0.51595   0.22998 
C          C       0.13692   0.52243   0.23854 
C          C       0.14486   0.53694   0.22814 
C          C       0.13835   0.54482   0.21852 
N          N       0.14310   0.51393   0.25628 
C          C       0.15526   0.51791   0.32184 
C          C       0.16085   0.50844   0.32682 
C          C       0.15217   0.49390   0.32544 
C          C       0.15826   0.48552   0.33052 
O          O       0.19589   0.51180   0.32489 
C          C       0.20394   0.52442   0.22871 
N          N       0.10299   0.54064   0.22900 
C          C       0.11697   0.54680   0.22106 
C          C       0.08152   0.54167   0.25143 
C          C       0.14152   0.59046   0.21101 
C          C       0.14953   0.60487   0.21303 
C          C       0.14336   0.61293   0.24256 
C          C       0.12905   0.60642   0.27577 
C          C       0.12101   0.59201   0.27361 
N          N       0.15197   0.62765   0.24114 
C          C       0.14779   0.63641   0.21052 
C          C       0.15745   0.65148   0.21562 
C          C       0.17197   0.65721   0.21610 
C          C       0.18140   0.33952   0.21827 
O          O       0.15582   0.35164   0.20567 
N          N       0.12468   0.56076   0.22415 
C          C       0.11860   0.56863   0.23581 
C          C       0.12381   0.53835   0.21773 
C          C       0.07517   0.54956   0.28912 
C          C       0.06077   0.54322   0.29886 
C          C       0.05250   0.52898   0.27303 
C          C       0.05875   0.52104   0.23301 
C          C       0.07316   0.52735   0.22347 
N          N       0.03781   0.52310   0.28312 
C          C       0.02887   0.51020   0.31184 
C          C       0.01385   0.50521   0.31406 
C          C       0.00843   0.51427   0.30649 
C          C       0.32870   0.50943   0.30857 
O          O       0.31625   0.47159   0.32610 
C          C       0.32064   0.46291   0.24252 
N          N       0.22899   0.43746   0.24911 
C          C       0.23683   0.45141   0.24578 
C          C       0.20644   0.41594   0.24127 
C          C       0.21765   0.47600   0.22096 
C          C       0.21107   0.48386   0.22962 
C          C       0.19665   0.47737   0.23702 
C          C       0.18873   0.46286   0.22593 
C          C       0.19525   0.45498   0.21706 
N          N       0.19046   0.48586   0.25470 
C          C       0.17826   0.48186   0.31897 
C          C       0.17270   0.49135   0.32517 
C          C       0.18137   0.50589   0.32186 
C          C       0.17529   0.51427   0.32857 
O          O       0.13766   0.48802   0.33137 
C          C       0.12950   0.47532   0.23717 
N          N       0.23062   0.45918   0.23261 
C          C       0.21663   0.45300   0.22274 
C          C       0.25208   0.45821   0.25814 
C          C       0.19208   0.40942   0.21058 
C          C       0.18403   0.39501   0.21143 
C          C       0.19012   0.38688   0.24119 
C          C       0.20440   0.39332   0.27564 
C          C       0.21250   0.40773   0.27491 
N          N       0.18142   0.37217   0.23933 
C          C       0.18552   0.36334   0.20904 
C          C       0.17576   0.34829   0.21455 
C          C       0.16126   0.34266   0.21600 
C          C       0.15172   0.66017   0.21929 
N          N       0.20894   0.43906   0.22531 
C          C       0.21500   0.43118   0.23831 
C          C       0.20979   0.46146   0.21791 
C          C       0.25847   0.45041   0.29957 
C          C       0.27288   0.45683   0.30994 
C          C       0.28111   0.47104   0.28079 
C          C       0.27480   0.47887   0.23734 
C          C       0.26039   0.47250   0.22745 
N          N       0.29581   0.47699   0.29039 
C          C       0.30472   0.48996   0.31546 
C          C       0.31975   0.49505   0.31562 
C          C       0.32524   0.48604   0.31839 
C          C       0.00482   0.49084   0.32061 
O          O       0.01749   0.52872   0.29875 
C          C       0.01278   0.53699   0.21111 
N          N       0.43939   0.56365   0.25266 
C          C       0.43157   0.54968   0.24685 
C          C       0.46180   0.58522   0.24824 
C          C       0.45087   0.52529   0.21000 
C          C       0.45743   0.51742   0.21433 
C          C       0.47182   0.52386   0.22806 
C          C       0.47976   0.53840   0.22930 
C          C       0.47325   0.54630   0.22493 
N          N       0.47791   0.51527   0.24039 
C          C       0.49005   0.51893   0.30414 
C          C       0.49525   0.50914   0.30727 
C          C       0.48624   0.49466   0.30545 
C          C       0.49194   0.48596   0.31294 
O          O       0.52984   0.51140   0.30232 
C          C       0.53814   0.52435   0.21397 
N          N       0.43786   0.54201   0.23308 
C          C       0.45184   0.54821   0.22504 
C          C       0.41632   0.54289   0.25648 
C          C       0.47608   0.59192   0.21216 
C          C       0.48395   0.60635   0.21299 
C          C       0.47772   0.61428   0.24827 
C          C       0.46353   0.60764   0.28865 
C          C       0.45563   0.59323   0.28780 
N          N       0.48620   0.62901   0.24621 
C          C       0.48181   0.63764   0.21913 
C          C       0.49134   0.65273   0.22417 
C          C       0.50589   0.65861   0.22707 
C          C       0.51432   0.33853   0.20287 
N          N       0.45951   0.56220   0.23003 
C          C       0.45335   0.56997   0.24375 
C          C       0.45872   0.53983   0.21798 
C          C       0.40989   0.55072   0.29315 
C          C       0.39548   0.54432   0.30125 
C          C       0.38728   0.53008   0.27489 
C          C       0.39361   0.52220   0.23584 
C          C       0.40803   0.52856   0.22778 
N          N       0.37258   0.52415   0.28330 
C          C       0.36368   0.51124   0.31255 
C          C       0.34865   0.50617   0.31305 
C          C       0.34315   0.51516   0.30229 
C          C       0.66040   0.50824   0.21875 
O          O       0.64925   0.47073   0.20983 
N          N       0.56174   0.43592   0.30988 
C          C       0.56969   0.44988   0.31644 
C          C       0.53915   0.41457   0.28853 
C          C       0.55082   0.47471   0.32339 
C          C       0.54448   0.48278   0.31960 
C          C       0.53031   0.47671   0.28722 
C          C       0.52247   0.46243   0.25295 
C          C       0.52876   0.45431   0.25711 
N          N       0.52435   0.48547   0.28813 
C          C       0.51141   0.48145   0.31436 
C          C       0.50634   0.49139   0.31135 
C          C       0.51536   0.50590   0.30514 
C          C       0.50963   0.51461   0.30930 
O          O       0.47177   0.48921   0.30707 
C          C       0.46339   0.47632   0.21790 
N          N       0.56356   0.45774   0.31178 
C          C       0.54962   0.45174   0.30002 
C          C       0.58494   0.45655   0.31964 
C          C       0.52489   0.40828   0.25232 
C          C       0.51683   0.39390   0.23928 
C          C       0.52284   0.38561   0.26025 
C          C       0.53700   0.39180   0.30073 
C          C       0.54510   0.40617   0.31403 
N          N       0.51416   0.37094   0.24566 
C          C       0.51832   0.36235   0.20383 
C          C       0.50865   0.34728   0.20208 
C          C       0.49413   0.34160   0.20255 
C          C       0.48545   0.66130   0.22565 
N          N       0.54181   0.43779   0.29276 
C          C       0.54779   0.42980   0.29853 
C          C       0.54299   0.46036   0.29344 
C          C       0.59145   0.44861   0.29722 
C          C       0.60586   0.45507   0.28825 
C          C       0.61397   0.46946   0.29970 
C          C       0.60757   0.47741   0.32882 
C          C       0.59317   0.47099   0.33834 
N          N       0.62864   0.47562   0.28328 
C          C       0.63686   0.48805   0.22563 
C          C       0.65196   0.49378   0.22078 
C          C       0.65795   0.48522   0.22012 
C          C       0.33969   0.49179   0.32149 
O          O       0.35215   0.52961   0.29164 
C          C       0.34726   0.53777   0.20518 
N          N       0.77111   0.56376   0.31137 
C          C       0.76316   0.54978   0.31791 
C          C       0.79375   0.58507   0.28956 
C          C       0.78199   0.52490   0.32460 
C          C       0.78836   0.51684   0.32073 
C          C       0.80252   0.52292   0.28703 
C          C       0.81030   0.53718   0.25092 
C          C       0.80400   0.54528   0.25515 
N          N       0.80854   0.51423   0.28876 
C          C       0.82149   0.51837   0.31722 
C          C       0.82675   0.50858   0.31393 
C          C       0.81787   0.49405   0.30989 
C          C       0.82378   0.48549   0.31282 
O          O       0.86153   0.51125   0.30196 
C          C       0.86970   0.52417   0.21270 
N          N       0.76924   0.54191   0.31282 
C          C       0.78319   0.54788   0.30062 
C          C       0.74790   0.54315   0.32136 
C          C       0.80801   0.59131   0.25379 
C          C       0.81614   0.60568   0.24085 
C          C       0.81019   0.61402   0.26143 
C          C       0.79602   0.60790   0.30130 
C          C       0.78786   0.59353   0.31457 
N          N       0.81894   0.62868   0.24696 
C          C       0.81488   0.63734   0.20445 
C          C       0.82464   0.65239   0.20254 
C          C       0.83915   0.65799   0.20383 
C          C       0.84804   0.33927   0.22604 
O          O       0.82186   0.35069   0.22107 
N          N       0.79101   0.56184   0.29344 
C          C       0.78508   0.56984   0.29960 
C          C       0.78979   0.53925   0.29333 
C          C       0.74140   0.55109   0.29911 
C          C       0.72699   0.54465   0.29006 
C          C       0.71888   0.53026   0.30128 
C          C       0.72526   0.52230   0.33034 
C          C       0.73966   0.52870   0.33994 
N          N       0.70421   0.52411   0.28453 
C          C       0.69600   0.51169   0.22636 
C          C       0.68090   0.50595   0.22113 
C          C       0.67491   0.51451   0.21973 
C          C       0.99401   0.50864   0.31357 
O          O       0.98130   0.47072   0.32393 
C          C       0.98569   0.46203   0.24067 
N          N       0.89424   0.43692   0.25363 
C          C       0.90206   0.45089   0.24744 
C          C       0.87179   0.41537   0.24880 
C          C       0.88282   0.47533   0.20944 
C          C       0.87623   0.48319   0.21359 
C          C       0.86183   0.47671   0.22412 
C          C       0.85390   0.46218   0.22134 
C          C       0.86043   0.45430   0.21709 
N          N       0.85567   0.48525   0.23775 
C          C       0.84354   0.48146   0.30259 
C          C       0.83818   0.49112   0.30739 
C          C       0.84704   0.50563   0.30376 
C          C       0.84117   0.51419   0.31251 
O          O       0.80336   0.48837   0.31042 
C          C       0.79510   0.47539   0.22278 
N          N       0.89581   0.45858   0.23203 
C          C       0.88183   0.45238   0.22266 
C          C       0.91732   0.45767   0.25877 
C          C       0.85750   0.40868   0.21291 
C          C       0.84960   0.39425   0.21428 
C          C       0.85580   0.38630   0.24981 
C          C       0.87000   0.39291   0.29000 
C          C       0.87793   0.40733   0.28874 
N          N       0.84729   0.37157   0.24777 
C          C       0.85167   0.36293   0.22022 
C          C       0.84214   0.34783   0.22504 
C          C       0.82759   0.34193   0.22800 
C          C       0.81905   0.66121   0.20231 
N          N       0.87415   0.43841   0.22817 
C          C       0.88026   0.43061   0.24357 
C          C       0.87497   0.46079   0.21422 
C          C       0.92372   0.44981   0.29513 
C          C       0.93812   0.45620   0.30464 
C          C       0.94634   0.47046   0.27996 
C          C       0.94004   0.47837   0.24136 
C          C       0.92563   0.47202   0.23200 
N          N       0.96104   0.47637   0.28919 
C          C       0.96997   0.48926   0.31867 
C          C       0.98498   0.49427   0.31832 
C          C       0.99038   0.48518   0.31837 
C          C       0.67246   0.49149   0.21949 
N          N       0.10508   0.89705   0.31287 
C          C       0.09715   0.88309   0.32058 
C          C       0.12768   0.91841   0.29018 
C          C       0.11611   0.85832   0.33037 
C          C       0.12246   0.85025   0.32372 
C          C       0.13653   0.85628   0.28401 
C          C       0.14424   0.87052   0.24618 
C          C       0.13796   0.87863   0.25355 
N          N       0.14251   0.84755   0.28123 
C          C       0.15554   0.85167   0.29987 
C          C       0.16070   0.84180   0.29409 
C          C       0.15175   0.82728   0.29152 
C          C       0.15758   0.81866   0.29561 
O          O       0.19539   0.84426   0.27392 
C          C       0.20348   0.85729   0.18680 
N          N       0.10327   0.87523   0.31634 
C          C       0.11721   0.88124   0.30388 
C          C       0.08188   0.87641   0.32398 
C          C       0.14198   0.92471   0.25675 
C          C       0.15007   0.93910   0.24457 
C          C       0.14403   0.94739   0.26350 
C          C       0.12981   0.94118   0.30061 
C          C       0.12170   0.92681   0.31307 
N          N       0.15273   0.96207   0.25063 
C          C       0.14859   0.97066   0.20736 
C          C       0.15820   0.98574   0.20767 
C          C       0.17272   0.99150   0.20901 
C          C       0.18045   0.67168   0.21560 
N          N       0.12501   0.89519   0.29550 
C          C       0.11904   0.90317   0.30082 
C          C       0.12383   0.87262   0.29622 
C          C       0.07537   0.88436   0.30458 
C          C       0.06096   0.87791   0.29539 
C          C       0.05286   0.86351   0.30342 
C          C       0.05926   0.85553   0.32963 
C          C       0.07366   0.86194   0.33953 
N          N       0.03819   0.85738   0.28641 
C          C       0.02996   0.84500   0.22702 
C          C       0.01487   0.83934   0.22140 
C          C       0.00896   0.84797   0.22041 
C          C       0.32644   0.84155   0.21965 
N          N       0.22777   0.76915   0.31256 
C          C       0.23568   0.78312   0.31795 
C          C       0.20521   0.74777   0.29080 
C          C       0.21671   0.80787   0.31755 
C          C       0.21031   0.81589   0.31094 
C          C       0.19618   0.80975   0.27522 
C          C       0.18845   0.79547   0.24054 
C          C       0.19479   0.78741   0.24765 
N          N       0.19015   0.81843   0.27330 
C          C       0.17714   0.81432   0.29528 
C          C       0.17198   0.82418   0.29119 
C          C       0.18091   0.83869   0.28239 
C          C       0.17510   0.84732   0.28970 
O          O       0.13726   0.82170   0.29324 
C          C       0.12890   0.80870   0.20642 
N          N       0.22956   0.79095   0.31069 
C          C       0.21560   0.78493   0.29742 
C          C       0.25095   0.78981   0.32211 
C          C       0.19097   0.74144   0.25260 
C          C       0.18292   0.72705   0.24180 
C          C       0.18892   0.71879   0.26700 
C          C       0.20308   0.72503   0.30818 
C          C       0.21116   0.73941   0.31926 
N          N       0.18022   0.70410   0.25582 
C          C       0.18437   0.69546   0.21680 
C          C       0.17472   0.68039   0.21735 
C          C       0.16018   0.67465   0.22110 
C          C       0.15243   0.99441   0.20907 
N          N       0.20783   0.77097   0.29149 
C          C       0.21380   0.76301   0.29974 
C          C       0.20897   0.79352   0.28747 
C          C       0.25748   0.78188   0.30275 
C          C       0.27190   0.78836   0.29435 
C          C       0.27998   0.80276   0.30367 
C          C       0.27354   0.81070   0.32979 
C          C       0.25914   0.80428   0.33824 
N          N       0.29466   0.80894   0.28813 
C          C       0.30289   0.82135   0.22966 
C          C       0.31800   0.82709   0.22509 
C          C       0.32401   0.81855   0.22695 
C          C       0.00635   0.82489   0.21904 
N          N       0.43763   0.89819   0.23170 
C          C       0.42983   0.88426   0.24172 
C          C       0.46015   0.91977   0.22566 
C          C       0.44920   0.86002   0.29257 
C          C       0.45573   0.85213   0.30305 
C          C       0.46998   0.85827   0.27614 
C          C       0.47772   0.87243   0.23428 
C          C       0.47124   0.88036   0.22415 
N          N       0.47606   0.84964   0.28738 
C          C       0.48905   0.85379   0.31194 
C          C       0.49417   0.84388   0.31479 
C          C       0.48518   0.82940   0.32592 
C          C       0.49093   0.82071   0.33032 
O          O       0.52866   0.84589   0.28160 
C          C       0.53683   0.85900   0.19650 
N          N       0.43610   0.87653   0.24872 
C          C       0.45010   0.88271   0.24404 
C          C       0.41454   0.87743   0.24541 
C          C       0.47465   0.92633   0.20910 
C          C       0.48271   0.94076   0.21698 
C          C       0.47653   0.94883   0.24388 
C          C       0.46201   0.94238   0.25427 
C          C       0.45392   0.92797   0.24590 
N          N       0.48536   0.96352   0.25920 
C          C       0.48199   0.97208   0.32745 
C          C       0.49192   0.98706   0.33054 
C          C       0.50637   0.99237   0.32738 
C          C       0.51423   0.67310   0.22654 
O          O       0.48808   0.68456   0.21998 
N          N       0.45778   0.89664   0.23330 
C          C       0.45164   0.90450   0.22772 
C          C       0.45690   0.87424   0.25359 
C          C       0.40785   0.88498   0.20732 
C          C       0.39340   0.87842   0.20731 
C          C       0.38545   0.86428   0.24361 
C          C       0.39208   0.85675   0.28610 
C          C       0.40651   0.86328   0.28620 
N          N       0.37069   0.85801   0.24030 
C          C       0.36211   0.84498   0.21250 
C          C       0.34697   0.83929   0.21732 
C          C       0.34095   0.84783   0.21735 
C          C       0.66051   0.84205   0.30408 
O          O       0.64736   0.80407   0.31777 
C          C       0.65155   0.79522   0.23451 
N          N       0.56043   0.77074   0.25938 
C          C       0.56829   0.78469   0.25595 
C          C       0.53798   0.74923   0.25143 
C          C       0.54925   0.80931   0.22009 
C          C       0.54279   0.81729   0.22304 
C          C       0.52841   0.81096   0.23624 
C          C       0.52037   0.79643   0.23817 
C          C       0.52678   0.78842   0.23470 
N          N       0.52244   0.81967   0.24682 
C          C       0.51036   0.81620   0.31154 
C          C       0.50526   0.82609   0.31332 
C          C       0.51423   0.84054   0.29600 
C          C       0.50853   0.84928   0.30151 
O          O       0.47076   0.82394   0.34020 
C          C       0.46193   0.81084   0.25791 
N          N       0.56207   0.79245   0.24363 
C          C       0.54809   0.78629   0.23486 
C          C       0.58355   0.79143   0.26591 
C          C       0.52378   0.74258   0.21008 
C          C       0.51589   0.72815   0.20850 
C          C       0.52201   0.72016   0.24696 
C          C       0.53611   0.72675   0.29231 
C          C       0.54403   0.74116   0.29362 
N          N       0.51349   0.70543   0.24368 
C          C       0.51790   0.69677   0.22076 
C          C       0.50835   0.68167   0.22495 
C          C       0.49379   0.67579   0.22719 
C          C       0.48666   0.99615   0.33386 
O          O       0.51174   0.98334   0.33583 
C          C       0.52294   0.98609   0.21904 
N          N       0.54036   0.77233   0.23747 
C          C       0.54646   0.76447   0.24963 
C          C       0.54131   0.79479   0.22824 
C          C       0.58993   0.78351   0.29968 
C          C       0.60434   0.78986   0.30692 
C          C       0.61259   0.80412   0.28226 
C          C       0.60629   0.81208   0.24676 
C          C       0.59187   0.80578   0.23984 
N          N       0.62728   0.80995   0.28856 
C          C       0.63636   0.82289   0.31221 
C          C       0.65134   0.82771   0.31040 
C          C       0.65658   0.81849   0.31125 
C          C       0.33852   0.82483   0.22226 
N          N       0.77104   0.89544   0.25424 
C          C       0.76325   0.88150   0.25157 
C          C       0.79351   0.91703   0.24517 
C          C       0.78266   0.85710   0.22546 
C          C       0.78935   0.84933   0.23019 
C          C       0.80378   0.85592   0.23325 
C          C       0.81161   0.87043   0.22345 
C          C       0.80498   0.87822   0.21873 
N          N       0.81008   0.84749   0.24543 
C          C       0.82247   0.85154   0.30304 
C          C       0.82799   0.84200   0.30601 
C          C       0.81926   0.82748   0.30431 
C          C       0.82527   0.81905   0.31184 
O          O       0.86299   0.84512   0.30122 
C          C       0.87106   0.85814   0.21354 
N          N       0.76952   0.87377   0.23872 
C          C       0.78351   0.88002   0.22856 
C          C       0.74799   0.87468   0.26268 
C          C       0.80784   0.92363   0.21228 
C          C       0.81581   0.93805   0.21272 
C          C       0.80967   0.94610   0.24460 
C          C       0.79540   0.93957   0.28093 
C          C       0.78739   0.92516   0.28021 
N          N       0.81831   0.96082   0.24216 
C          C       0.81412   0.96965   0.21793 
C          C       0.82391   0.98471   0.22012 
C          C       0.83842   0.99035   0.21921 
C          C       0.84776   0.67245   0.20227 
N          N       0.79115   0.89396   0.23039 
C          C       0.78502   0.90179   0.24313 
C          C       0.79043   0.87164   0.22232 
C          C       0.74161   0.88250   0.30267 
C          C       0.72720   0.87614   0.31055 
C          C       0.71896   0.86195   0.28036 
C          C       0.72525   0.85408   0.23874 
C          C       0.73967   0.86041   0.23125 
N          N       0.70426   0.85612   0.28720 
C          C       0.69516   0.84314   0.30624 
C          C       0.68017   0.83832   0.30671 
C          C       0.67491   0.84752   0.29732 
C          C       0.99446   0.84178   0.21946 
N          N       0.89567   0.76991   0.31053 
C          C       0.90362   0.78387   0.31700 
C          C       0.87302   0.74860   0.28906 
C          C       0.88469   0.80871   0.32815 
C          C       0.87829   0.81674   0.32439 
C          C       0.86418   0.81067   0.28716 
C          C       0.85649   0.79646   0.24762 
C          C       0.86283   0.78839   0.25195 
N          N       0.85810   0.81932   0.28859 
C          C       0.84508   0.81508   0.31331 
C          C       0.83971   0.82477   0.31023 
C          C       0.84847   0.83932   0.30394 
C          C       0.84242   0.84777   0.30778 
O          O       0.80475   0.82166   0.30773 
C          C       0.79662   0.80892   0.21444 
N          N       0.89756   0.79177   0.31230 
C          C       0.88359   0.78579   0.30046 
C          C       0.91889   0.79048   0.32015 
C          C       0.85876   0.74236   0.25309 
C          C       0.85065   0.72799   0.23992 
C          C       0.85659   0.71965   0.26046 
C          C       0.87076   0.72577   0.30057 
C          C       0.87891   0.74014   0.31410 
N          N       0.84785   0.70499   0.24596 
C          C       0.85193   0.69632   0.20396 
C          C       0.84217   0.68127   0.20231 
C          C       0.82766   0.67567   0.20370 
C          C       0.81828   0.99350   0.22259 
N          N       0.87578   0.77184   0.29329 
C          C       0.88169   0.76383   0.29913 
C          C       0.87698   0.79442   0.29344 
C          C       0.92533   0.78246   0.29929 
C          C       0.93974   0.78884   0.29036 
C          C       0.94790   0.80323   0.30036 
C          C       0.94158   0.81126   0.32798 
C          C       0.92718   0.80493   0.33737 
N          N       0.96258   0.80930   0.28394 
C          C       0.97086   0.82170   0.22575 
C          C       0.98594   0.82733   0.22088 
C          C       0.99185   0.81870   0.21958 
C          C       0.67099   0.82398   0.31360 
O          O       0.68410   0.86194   0.28740 
C          C       0.67948   0.87027   0.19948 
C          C       0.16105   0.17576   0.29108 
C          C       0.15214   0.16123   0.28793 
C          C       0.15801   0.15265   0.29324 
O          O       0.19580   0.17834   0.27499 
C          C       0.20392   0.19137   0.18794 
C          C       0.17242   0.15821   0.29041 
C          C       0.18132   0.17272   0.28206 
C          C       0.17546   0.18132   0.28815 
O          O       0.13764   0.15561   0.28718 
C          C       0.12937   0.14255   0.20118 
H          H       0.10536   0.18705   0.36436 
H          H       0.11686   0.17302   0.35407 
H          H       0.15510   0.20921   0.20550 
H          H       0.14404   0.22326   0.21999 
H          H       0.16325   0.19645   0.31711 
H          H       0.14652   0.25199   0.22387 
H          H       0.16070   0.27738   0.20447 
H          H       0.12516   0.28099   0.34014 
H          H       0.11089   0.25580   0.35760 
H          H       0.13777   0.30070   0.18955 
H          H       0.19230   0.01068   0.20458 
H          H       0.08130   0.22891   0.28065 
H          H       0.05584   0.21735   0.26462 
H          H       0.05314   0.17785   0.34223 
H          H       0.07835   0.18910   0.35591 
H          H       0.03379   0.17156   0.18640 
H          H       0.32258   0.18157   0.21783 
H          H       0.22812   0.14692   0.36611 
H          H       0.21663   0.16094   0.35499 
H          H       0.17840   0.12474   0.20605 
H          H       0.18943   0.11069   0.22179 
H          H       0.17022   0.13752   0.31587 
H          H       0.18668   0.08187   0.23944 
H          H       0.17255   0.05648   0.21876 
H          H       0.20861   0.05304   0.32514 
H          H       0.22282   0.07821   0.34379 
H          H       0.19576   0.03348   0.17498 
H          H       0.14157   0.32361   0.21294 
H          H       0.25205   0.10484   0.29667 
H          H       0.27750   0.11625   0.28126 
H          H       0.28042   0.15601   0.33876 
H          H       0.25520   0.14489   0.35186 
H          H       0.29972   0.16184   0.18324 
H          H       0.01113   0.15177   0.21723 
H          H       0.43804   0.18602   0.35975 
H          H       0.44939   0.17186   0.35659 
H          H       0.48832   0.20812   0.23300 
H          H       0.47736   0.22231   0.23913 
H          H       0.49577   0.19500   0.35881 
H          H       0.48434   0.14027   0.29690 
H          H       0.53164   0.19122   0.12851 
H          H       0.54629   0.18968   0.19137 
H          H       0.54062   0.19883   0.33435 
H          H       0.47981   0.25112   0.23150 
H          H       0.49392   0.27647   0.20739 
H          H       0.45811   0.28009   0.32501 
H          H       0.44389   0.25493   0.34704 
H          H       0.47080   0.29959   0.17092 
H          H       0.46863   0.00928   0.33119 
H          H       0.47665   0.00974   0.12063 
H          H       0.47720   0.02503   0.20430 
H          H       0.41464   0.22841   0.28346 
H          H       0.38922   0.21716   0.26748 
H          H       0.38595   0.17734   0.33650 
H          H       0.41117   0.18831   0.35052 
H          H       0.36668   0.17147   0.17968 
H          H       0.65783   0.18313   0.32541 
H          H       0.65815   0.13379   0.11657 
H          H       0.64441   0.11923   0.22848 
H          H       0.66116   0.12851   0.33077 
H          H       0.56196   0.14790   0.18890 
H          H       0.54990   0.16127   0.21900 
H          H       0.51063   0.12343   0.20372 
H          H       0.52236   0.11005   0.17766 
H          H       0.50409   0.13679   0.33760 
H          H       0.51486   0.19104   0.35047 
H          H       0.46071   0.13260   0.29365 
H          H       0.46745   0.14096   0.08177 
H          H       0.45216   0.14004   0.17189 
H          H       0.52116   0.08155   0.14194 
H          H       0.50752   0.05617   0.17541 
H          H       0.54499   0.05509   0.27408 
H          H       0.55857   0.08015   0.24305 
H          H       0.53033   0.03451   0.37370 
H          H       0.47448   0.32250   0.19696 
H          H       0.58710   0.10691   0.16168 
H          H       0.61248   0.11861   0.19249 
H          H       0.61405   0.15776   0.25106 
H          H       0.58892   0.14631   0.22324 
H          H       0.63432   0.16345   0.36879 
H          H       0.34387   0.15183   0.21429 
H          H       0.77280   0.18607   0.21042 
H          H       0.78448   0.17223   0.21847 
H          H       0.82411   0.20969   0.22698 
H          H       0.81278   0.22351   0.22356 
H          H       0.82978   0.19541   0.35567 
H          H       0.81888   0.14120   0.31717 
H          H       0.86659   0.19154   0.08980 
H          H       0.88180   0.19230   0.18090 
H          H       0.87328   0.19982   0.30191 
H          H       0.81439   0.25196   0.17739 
H          H       0.82838   0.27742   0.17985 
H          H       0.79240   0.27981   0.32942 
H          H       0.77834   0.25460   0.32456 
H          H       0.80480   0.30007   0.19164 
H          H       0.85809   0.00940   0.20863 
H          H       0.74935   0.22826   0.30069 
H          H       0.72391   0.21693   0.31811 
H          H       0.72075   0.17733   0.22961 
H          H       0.74593   0.18835   0.21487 
H          H       0.70032   0.17041   0.35480 
H          H       0.98919   0.18092   0.22159 
H          H       0.89551   0.14617   0.35472 
H          H       0.88424   0.16041   0.34875 
H          H       0.84544   0.12431   0.21600 
H          H       0.85628   0.11004   0.22581 
H          H       0.83787   0.13726   0.34027 
H          H       0.84962   0.19212   0.31347 
H          H       0.79527   0.13356   0.30485 
H          H       0.80171   0.14176   0.09177 
H          H       0.78664   0.14107   0.18643 
H          H       0.85376   0.08128   0.21225 
H          H       0.83934   0.05590   0.19321 
H          H       0.87449   0.05182   0.33575 
H          H       0.88900   0.07699   0.35269 
H          H       0.86186   0.03225   0.18097 
H          H       0.80813   0.32263   0.22356 
H          H       0.91885   0.10385   0.26482 
H          H       0.94432   0.11530   0.24959 
H          H       0.94728   0.15467   0.35010 
H          H       0.92208   0.14354   0.36350 
H          H       0.96656   0.16124   0.19101 
H          H       0.67709   0.15160   0.33887 
H          H       0.67466   0.20712   0.31260 
H          H       0.67521   0.19950   0.10269 
H          H       0.69033   0.21456   0.18361 
H          H       0.10473   0.51854   0.21870 
H          H       0.11645   0.50475   0.23547 
H          H       0.15605   0.54222   0.22675 
H          H       0.14471   0.55601   0.21438 
H          H       0.16170   0.52838   0.37000 
H          H       0.15172   0.47439   0.33698 
H          H       0.19818   0.52531   0.11422 
H          H       0.21329   0.52457   0.17521 
H          H       0.20728   0.53346   0.31775 
H          H       0.14653   0.58443   0.18526 
H          H       0.16055   0.60986   0.18868 
H          H       0.12409   0.61237   0.30628 
H          H       0.11001   0.58720   0.29949 
H          H       0.13704   0.63280   0.17928 
H          H       0.19251   0.34417   0.21618 
H          H       0.08136   0.56061   0.31215 
H          H       0.05592   0.54931   0.32859 
H          H       0.05262   0.51009   0.20566 
H          H       0.07780   0.52107   0.19221 
H          H       0.03228   0.50280   0.33560 
H          H       0.32433   0.51616   0.30744 
H          H       0.32491   0.46689   0.10962 
H          H       0.31153   0.45238   0.22624 
H          H       0.32845   0.46200   0.32320 
H          H       0.22886   0.48127   0.22026 
H          H       0.21712   0.49505   0.23559 
H          H       0.17754   0.45757   0.22367 
H          H       0.18890   0.44380   0.21237 
H          H       0.17178   0.47136   0.36602 
H          H       0.18183   0.52542   0.33339 
H          H       0.12650   0.46633   0.32593 
H          H       0.13503   0.47450   0.11969 
H          H       0.11993   0.47499   0.18868 
H          H       0.18712   0.41548   0.18459 
H          H       0.17302   0.39008   0.18614 
H          H       0.20929   0.38731   0.30619 
H          H       0.22348   0.41250   0.30200 
H          H       0.19626   0.36688   0.17836 
H          H       0.14059   0.65543   0.21798 
H          H       0.25231   0.43940   0.32486 
H          H       0.27778   0.45083   0.34244 
H          H       0.28089   0.48978   0.20728 
H          H       0.25572   0.47869   0.19331 
H          H       0.30127   0.49737   0.33595 
H          H       0.00914   0.48407   0.32754 
H          H       0.00596   0.53897   0.29851 
H          H       0.00724   0.53199   0.08704 
H          H       0.02191   0.54712   0.17564 
H          H       0.43967   0.52003   0.20321 
H          H       0.45137   0.50622   0.21144 
H          H       0.49094   0.54369   0.23300 
H          H       0.47958   0.55748   0.22963 
H          H       0.49668   0.52929   0.35455 
H          H       0.48515   0.47486   0.32021 
H          H       0.53319   0.52483   0.08908 
H          H       0.54829   0.52535   0.17967 
H          H       0.54006   0.53317   0.30055 
H          H       0.48110   0.58599   0.18138 
H          H       0.49490   0.61146   0.18307 
H          H       0.45856   0.61351   0.32379 
H          H       0.44470   0.58830   0.31938 
H          H       0.47099   0.63390   0.19077 
H          H       0.52544   0.34317   0.20109 
H          H       0.41602   0.56177   0.31643 
H          H       0.39056   0.55036   0.32999 
H          H       0.38753   0.51125   0.20801 
H          H       0.41273   0.52233   0.19704 
H          H       0.36714   0.50390   0.33836 
H          H       0.65548   0.51447   0.21555 
H          H       0.56179   0.47963   0.35212 
H          H       0.55047   0.49380   0.34537 
H          H       0.51157   0.45751   0.22093 
H          H       0.52250   0.44330   0.23129 
H          H       0.50406   0.47068   0.34170 
H          H       0.51636   0.52571   0.31256 
H          H       0.46096   0.46747   0.30661 
H          H       0.46852   0.47555   0.09618 
H          H       0.45350   0.47568   0.17761 
H          H       0.52001   0.41450   0.23250 
H          H       0.50589   0.38914   0.21018 
H          H       0.54176   0.38558   0.32550 
H          H       0.55599   0.41074   0.34558 
H          H       0.52909   0.36609   0.17211 
H          H       0.47432   0.65650   0.22214 
H          H       0.58535   0.43747   0.28275 
H          H       0.61081   0.44895   0.26734 
H          H       0.61364   0.48851   0.34546 
H          H       0.58842   0.47732   0.35894 
H          H       0.63277   0.49459   0.18324 
H          H       0.34405   0.48507   0.33080 
H          H       0.34042   0.53965   0.29345 
H          H       0.34169   0.53273   0.08143 
H          H       0.35629   0.54796   0.16936 
H          H       0.77105   0.52000   0.35471 
H          H       0.78240   0.50584   0.34773 
H          H       0.82117   0.54208   0.21751 
H          H       0.81023   0.55628   0.22809 
H          H       0.82873   0.52915   0.34564 
H          H       0.81716   0.47437   0.31759 
H          H       0.86439   0.52488   0.09226 
H          H       0.87960   0.52496   0.17014 
H          H       0.87210   0.53298   0.30227 
H          H       0.81285   0.58505   0.23430 
H          H       0.82708   0.61040   0.21206 
H          H       0.79130   0.61418   0.32559 
H          H       0.77696   0.58901   0.34569 
H          H       0.80413   0.63367   0.17217 
H          H       0.85918   0.34408   0.22249 
H          H       0.74752   0.56224   0.28469 
H          H       0.72206   0.55077   0.26916 
H          H       0.71918   0.51120   0.34674 
H          H       0.74440   0.52237   0.36040 
H          H       0.70009   0.50516   0.18380 
H          H       0.98971   0.51544   0.31476 
H          H       0.99009   0.46607   0.10842 
H          H       0.97656   0.45153   0.22297 
H          H       0.99340   0.46102   0.32230 
H          H       0.89402   0.48061   0.20578 
H          H       0.88228   0.49439   0.21358 
H          H       0.84271   0.45688   0.22214 
H          H       0.85410   0.44311   0.21889 
H          H       0.83703   0.47108   0.35304 
H          H       0.84785   0.52530   0.31804 
H          H       0.79345   0.46662   0.30852 
H          H       0.79993   0.47499   0.09642 
H          H       0.78483   0.47420   0.19143 
H          H       0.85251   0.41463   0.18182 
H          H       0.83865   0.38916   0.18447 
H          H       0.87494   0.38703   0.32520 
H          H       0.88886   0.41223   0.32019 
H          H       0.86248   0.36667   0.19157 
H          H       0.80794   0.65663   0.19958 
H          H       0.91757   0.43875   0.31683 
H          H       0.94302   0.45014   0.33302 
H          H       0.94614   0.48934   0.21479 
H          H       0.92096   0.47828   0.20170 
H          H       0.96656   0.49666   0.34309 
H          H       0.67739   0.48528   0.21696 
H          H       0.10524   0.85344   0.36440 
H          H       0.11657   0.83928   0.35261 
H          H       0.15502   0.87540   0.20858 
H          H       0.14412   0.88960   0.22462 
H          H       0.16294   0.86248   0.32354 
H          H       0.15088   0.80756   0.30319 
H          H       0.19834   0.85782   0.06380 
H          H       0.21364   0.85846   0.14939 
H          H       0.20540   0.86601   0.27544 
H          H       0.14688   0.91849   0.23888 
H          H       0.16105   0.94388   0.21798 
H          H       0.12501   0.94739   0.32355 
H          H       0.11077   0.92223   0.34214 
H          H       0.13786   0.96691   0.17285 
H          H       0.19158   0.67633   0.21105 
H          H       0.08146   0.89553   0.29266 
H          H       0.05601   0.88405   0.27692 
H          H       0.05319   0.84440   0.34355 
H          H       0.07841   0.85559   0.35769 
H          H       0.03401   0.83846   0.18365 
H          H       0.32154   0.84780   0.21545 
H          H       0.22765   0.81284   0.34854 
H          H       0.21621   0.82691   0.33697 
H          H       0.17760   0.79051   0.20588 
H          H       0.18861   0.77641   0.22116 
H          H       0.16981   0.80353   0.32167 
H          H       0.18180   0.85843   0.29265 
H          H       0.12731   0.79993   0.29177 
H          H       0.13361   0.80827   0.07925 
H          H       0.11860   0.80751   0.17697 
H          H       0.18612   0.74764   0.22955 
H          H       0.17200   0.72222   0.21113 
H          H       0.20785   0.71884   0.33522 
H          H       0.22204   0.74402   0.35154 
H          H       0.19514   0.69918   0.18453 
H          H       0.14130   0.98969   0.20683 
H          H       0.25141   0.77071   0.29008 
H          H       0.27688   0.78224   0.27557 
H          H       0.27958   0.82182   0.34479 
H          H       0.25436   0.81061   0.35580 
H          H       0.29880   0.82783   0.18538 
H          H       0.01122   0.81861   0.21615 
H          H       0.43815   0.85505   0.31657 
H          H       0.44979   0.84120   0.33410 
H          H       0.48867   0.87738   0.20598 
H          H       0.47738   0.89126   0.19170 
H          H       0.49647   0.86468   0.32937 
H          H       0.48425   0.80967   0.34585 
H          H       0.53185   0.85949   0.07197 
H          H       0.54708   0.86025   0.16253 
H          H       0.53854   0.86765   0.28503 
H          H       0.47973   0.92029   0.19217 
H          H       0.49387   0.94576   0.20595 
H          H       0.45684   0.94832   0.26817 
H          H       0.44277   0.92322   0.25800 
H          H       0.47171   0.96848   0.38008 
H          H       0.52536   0.67789   0.22374 
H          H       0.41379   0.89591   0.17542 
H          H       0.38831   0.88425   0.17589 
H          H       0.38620   0.84594   0.32221 
H          H       0.41143   0.85730   0.31961 
H          H       0.36592   0.83795   0.18496 
H          H       0.65633   0.84896   0.30416 
H          H       0.65593   0.79919   0.10195 
H          H       0.64233   0.78478   0.21757 
H          H       0.65922   0.79411   0.31577 
H          H       0.56045   0.81450   0.21393 
H          H       0.54893   0.82848   0.21940 
H          H       0.50919   0.79123   0.24149 
H          H       0.52038   0.77725   0.23950 
H          H       0.50376   0.80593   0.36471 
H          H       0.51524   0.86037   0.29470 
H          H       0.46105   0.80215   0.33919 
H          H       0.46579   0.81043   0.12450 
H          H       0.45141   0.80948   0.24288 
H          H       0.51886   0.74857   0.17697 
H          H       0.50502   0.72308   0.17450 
H          H       0.54098   0.72084   0.32994 
H          H       0.55488   0.74603   0.32926 
H          H       0.52877   0.70049   0.19663 
H          H       0.52549   0.99471   0.12485 
H          H       0.51997   0.97663   0.13886 
H          H       0.53225   0.98851   0.29874 
H          H       0.58378   0.77244   0.32087 
H          H       0.60924   0.78375   0.33304 
H          H       0.61237   0.82306   0.22062 
H          H       0.58721   0.81208   0.21166 
H          H       0.63313   0.83045   0.33353 
H          H       0.34344   0.81861   0.21976 
H          H       0.77145   0.85175   0.22731 
H          H       0.78337   0.83814   0.23592 
H          H       0.82279   0.87581   0.21860 
H          H       0.81125   0.88941   0.21447 
H          H       0.82908   0.86206   0.34853 
H          H       0.81866   0.80793   0.31948 
H          H       0.86600   0.85858   0.08939 
H          H       0.88128   0.85936   0.17797 
H          H       0.87284   0.86686   0.30116 
H          H       0.81283   0.91762   0.18472 
H          H       0.82679   0.94304   0.18554 
H          H       0.79045   0.94551   0.31280 
H          H       0.77642   0.92033   0.30845 
H          H       0.80330   0.96612   0.19326 
H          H       0.85887   0.67703   0.19955 
H          H       0.74777   0.89351   0.32845 
H          H       0.72232   0.88218   0.34153 
H          H       0.71916   0.84317   0.20824 
H          H       0.74435   0.85419   0.19816 
H          H       0.69840   0.83555   0.32430 
H          H       0.98959   0.84805   0.21694 
H          H       0.89558   0.81360   0.36099 
H          H       0.88416   0.82770   0.35415 
H          H       0.84568   0.79157   0.21141 
H          H       0.85667   0.77744   0.22215 
H          H       0.83786   0.80425   0.33919 
H          H       0.84895   0.85890   0.31090 
H          H       0.79381   0.79996   0.30302 
H          H       0.80211   0.80818   0.09605 
H          H       0.78695   0.80844   0.16767 
H          H       0.85392   0.74861   0.23363 
H          H       0.83970   0.72327   0.21108 
H          H       0.87548   0.71951   0.32489 
H          H       0.88980   0.74467   0.34549 
H          H       0.86268   0.70000   0.17206 
H          H       0.80716   0.98885   0.22292 
H          H       0.91918   0.77131   0.28606 
H          H       0.94462   0.78266   0.27066 
H          H       0.94770   0.82237   0.34352 
H          H       0.92248   0.81131   0.35670 
H          H       0.96684   0.82828   0.18304 
H          H       0.67518   0.81710   0.32153 
H          H       0.67285   0.87246   0.28753 
H          H       0.67379   0.86520   0.07648 
H          H       0.68867   0.88029   0.16196 
H          H       0.15135   0.14155   0.30071 
H          H       0.19889   0.19182   0.06353 
H          H       0.21415   0.19261   0.15313 
H          H       0.20568   0.20010   0.27548 
H          H       0.18213   0.19243   0.29151 
H          H       0.12786   0.13384   0.28729 
H          H       0.13414   0.14213   0.07442 
H          H       0.11904   0.14124   0.17112 
O          O       0.51160   0.64983   0.21924 
O          O       0.17749   0.64831   0.20559 
O          O       0.51127   0.31509   0.19797 
O          O       0.17834   0.31607   0.21665 
O          O       0.84545   0.31602   0.21953 
O          O       0.17830   0.98261   0.20098 
O          O       0.34959   0.86229   0.20470 
N          N       0.54336   0.64587   0.26117 
Br         Br      0.55540   0.61039   0.47009 
C          C       0.52523   0.65464   0.28693 
C          C       0.52787   0.64223   0.28938 
C          C       0.54371   0.64580   0.08764 
C          C       0.54690   0.63408   0.29285 
C          C       0.55530   0.66106   0.29279 
H          H       0.54052   0.65311   0.04310 
H          H       0.53637   0.63517   0.04525 
H          H       0.55447   0.64881   0.04766 
H          H       0.54971   0.62964   0.17680 
H          H       0.53788   0.62431   0.34192 
H          H       0.55672   0.63721   0.36522 
H          H       0.55941   0.66822   0.17574 
H          H       0.56485   0.66134   0.33988 
H          H       0.55269   0.66767   0.37477 
H          H       0.53299   0.66330   0.20583 
H          H       0.52585   0.65863   0.42215 
H          H       0.52042   0.63456   0.19267 
H          H       0.52207   0.63580   0.40242 
C          C       0.45602   0.68866   0.08927 
C          C       0.45293   0.70045   0.29437 
C          C       0.44438   0.67343   0.29445 
H          H       0.45916   0.68131   0.04476 
H          H       0.46339   0.69928   0.04682 
H          H       0.44527   0.68570   0.04927 
H          H       0.45016   0.70495   0.17824 
H          H       0.46202   0.71018   0.34305 
H          H       0.44315   0.69742   0.36741 
H          H       0.44024   0.66626   0.17744 
H          H       0.43485   0.67320   0.34155 
H          H       0.44696   0.66679   0.37626 
H          H       0.46667   0.67109   0.20689 
H          H       0.47384   0.67573   0.42310 
H          H       0.47930   0.69987   0.19481 
H          H       0.47765   0.69854   0.40443 
Br         Br      0.44850   0.72714   0.45432 
N          N       0.45636   0.68860   0.26281 
C          C       0.47445   0.67974   0.28798 
C          C       0.47184   0.69216   0.29106 
O          O       0.82226   0.68470   0.19646 
O          O       0.84455   0.64896   0.19657 
C          C       0.87595   0.64399   0.07021 
C          C       0.87892   0.63208   0.27546 
C          C       0.88789   0.65914   0.27520 
H          H       0.87307   0.65154   0.02557 
H          H       0.86839   0.63340   0.02823 
H          H       0.88660   0.64671   0.02984 
H          H       0.88129   0.62732   0.15876 
H          H       0.86986   0.62249   0.32725 
H          H       0.88879   0.63514   0.34591 
H          H       0.89222   0.66625   0.15790 
H          H       0.89729   0.65912   0.32297 
H          H       0.88549   0.66594   0.35655 
H          H       0.86601   0.66205   0.18746 
H          H       0.85859   0.65748   0.40236 
H          H       0.85270   0.63310   0.17720 
H          H       0.85442   0.63464   0.38628 
C          C       0.79086   0.68969   0.07062 
C          C       0.78791   0.70160   0.27586 
C          C       0.77891   0.67454   0.27558 
H          H       0.79373   0.68213   0.02599 
H          H       0.79845   0.70026   0.02870 
H          H       0.78022   0.68699   0.03019 
H          H       0.78568   0.70646   0.15900 
H          H       0.79693   0.71117   0.32893 
H          H       0.77798   0.69850   0.34520 
H          H       0.77458   0.66743   0.15829 
H          H       0.76952   0.67457   0.32341 
H          H       0.78131   0.66774   0.35690 
H          H       0.80079   0.67160   0.18769 
H          H       0.80822   0.67617   0.40243 
H          H       0.81412   0.70058   0.17793 
H          H       0.81240   0.69899   0.38691 
Br         Br      0.80976   0.73745   0.10465 
N          N       0.79112   0.68960   0.24417 
C          C       0.80878   0.68019   0.26745 
C          C       0.80651   0.69282   0.27259 
Br         Br      0.85913   0.59694   0.08647 
N          N       0.87570   0.64408   0.24375 
C          C       0.85803   0.65347   0.26734 
C          C       0.86031   0.64083   0.27215 
O          O       0.48865   0.35055   0.19460 
C          C       0.54277   0.31031   0.07278 
C          C       0.54578   0.29843   0.27802 
C          C       0.55468   0.32547   0.27779 
H          H       0.53986   0.31784   0.02811 
H          H       0.53524   0.29972   0.03077 
H          H       0.55343   0.31306   0.03245 
H          H       0.54814   0.29366   0.16129 
H          H       0.53674   0.28883   0.32999 
H          H       0.55567   0.30153   0.34831 
H          H       0.55900   0.33259   0.16051 
H          H       0.56409   0.32548   0.32561 
H          H       0.55225   0.33225   0.35901 
H          H       0.53271   0.32829   0.18938 
H          H       0.52528   0.32370   0.40410 
H          H       0.51952   0.29931   0.18013 
H          H       0.52124   0.30093   0.38912 
C          C       0.45722   0.35543   0.06998 
C          C       0.45422   0.36732   0.27521 
C          C       0.44529   0.34027   0.27497 
H          H       0.46012   0.34789   0.02533 
H          H       0.46477   0.36602   0.02800 
H          H       0.44656   0.35269   0.02957 
H          H       0.45190   0.37211   0.15843 
H          H       0.46325   0.37691   0.32759 
H          H       0.44432   0.36422   0.34521 
H          H       0.44098   0.33315   0.15767 
H          H       0.43589   0.34027   0.32276 
H          H       0.44771   0.33348   0.35630 
H          H       0.46719   0.33738   0.18735 
H          H       0.47470   0.34203   0.40162 
H          H       0.48047   0.36639   0.17733 
H          H       0.47875   0.36479   0.38627 
Br         Br      0.47488   0.40274   0.09459 
N          N       0.45747   0.35534   0.24353 
C          C       0.47519   0.34601   0.26658 
C          C       0.47287   0.35861   0.27192 
C          C       0.87763   0.31211   0.08801 
C          C       0.88082   0.30038   0.29311 
C          C       0.88921   0.32737   0.29322 
H          H       0.87443   0.31941   0.04353 
H          H       0.87031   0.30148   0.04555 
H          H       0.88840   0.31513   0.04802 
H          H       0.88364   0.29593   0.17698 
H          H       0.87177   0.29062   0.34176 
H          H       0.89060   0.30346   0.36632 
H          H       0.89331   0.33454   0.17622 
H          H       0.89877   0.32766   0.34023 
H          H       0.88658   0.33397   0.37509 
H          H       0.86684   0.32954   0.20605 
H          H       0.85970   0.32487   0.42236 
H          H       0.85435   0.30081   0.19320 
H          H       0.85599   0.30208   0.40287 
C          C       0.78972   0.35464   0.09073 
C          C       0.78657   0.36639   0.29583 
C          C       0.77813   0.33938   0.29592 
H          H       0.79291   0.34732   0.04620 
H          H       0.79706   0.36526   0.04827 
H          H       0.77896   0.35164   0.05074 
H          H       0.78378   0.37087   0.17968 
H          H       0.79563   0.37614   0.34454 
H          H       0.77679   0.36333   0.36895 
H          H       0.77401   0.33222   0.17888 
H          H       0.76858   0.33910   0.34315 
H          H       0.78076   0.33277   0.37760 
H          H       0.80047   0.33717   0.20846 
H          H       0.80765   0.34184   0.42451 
H          H       0.81301   0.36594   0.19623 
H          H       0.81136   0.36460   0.40587 
Br         Br      0.78227   0.39330   0.44985 
N          N       0.79007   0.35458   0.26426 
C          C       0.80824   0.34583   0.28937 
C          C       0.80556   0.35821   0.29249 
Br         Br      0.88593   0.27399   0.44862 
N          N       0.87729   0.31217   0.26155 
C          C       0.85909   0.32088   0.28717 
C          C       0.86178   0.30851   0.28977 
Br         Br      0.52483   0.26347   0.08582 
N          N       0.54251   0.31040   0.24632 
C          C       0.52476   0.31969   0.26920 
C          C       0.52711   0.30710   0.27470 
O          O       0.15458   0.68354   0.21607 
C          C       0.20873   0.64313   0.08016 
C          C       0.21156   0.63114   0.28536 
C          C       0.22073   0.65825   0.28523 
H          H       0.20590   0.65072   0.03561 
H          H       0.20116   0.63253   0.03798 
H          H       0.21938   0.64581   0.03995 
H          H       0.21413   0.62651   0.16905 
H          H       0.20234   0.62155   0.33419 
H          H       0.22128   0.63398   0.35831 
H          H       0.22509   0.66536   0.16796 
H          H       0.23009   0.65817   0.33308 
H          H       0.21837   0.66508   0.36657 
H          H       0.19896   0.66138   0.19876 
H          H       0.19142   0.65669   0.41302 
H          H       0.18551   0.63238   0.18668 
H          H       0.18721   0.63382   0.39578 
C          C       0.12227   0.68729   0.08391 
C          C       0.11900   0.69897   0.28899 
C          C       0.11074   0.67201   0.28908 
H          H       0.12551   0.68002   0.03938 
H          H       0.12957   0.69792   0.04154 
H          H       0.11150   0.68422   0.04382 
H          H       0.11628   0.70349   0.17269 
H          H       0.12801   0.70871   0.33852 
H          H       0.10918   0.69581   0.36153 
H          H       0.10670   0.66483   0.17212 
H          H       0.10114   0.67167   0.33577 
H          H       0.11340   0.66544   0.37105 
H          H       0.13319   0.67002   0.20123 
H          H       0.14026   0.67463   0.41787 
H          H       0.14558   0.69871   0.18945 
H          H       0.14392   0.69737   0.39915 
Br         Br      0.12103   0.73035   0.42439 
N          N       0.12261   0.68723   0.25744 
C          C       0.14091   0.67865   0.28286 
C          C       0.13815   0.69097   0.28569 
C          C       0.21043   0.31195   0.08497 
C          C       0.21353   0.30016   0.29006 
C          C       0.22207   0.32718   0.29014 
H          H       0.20729   0.31929   0.04039 
H          H       0.20305   0.30133   0.04258 
H          H       0.22117   0.31490   0.04492 
H          H       0.21624   0.29561   0.17384 
H          H       0.20445   0.29046   0.33921 
H          H       0.22332   0.30320   0.36293 
H          H       0.22619   0.33435   0.17315 
H          H       0.23161   0.32741   0.33703 
H          H       0.21949   0.33382   0.37195 
H          H       0.19977   0.32945   0.20170 
H          H       0.19270   0.32493   0.41835 
H          H       0.18713   0.30073   0.19065 
H          H       0.18880   0.30210   0.40036 
C          C       0.12464   0.35698   0.07901 
C          C       0.12190   0.36903   0.28417 
C          C       0.11260   0.34189   0.28410 
H          H       0.12742   0.34936   0.03448 
H          H       0.13226   0.36756   0.03681 
H          H       0.11401   0.35436   0.03886 
H          H       0.11942   0.37373   0.16784 
H          H       0.13115   0.37859   0.33306 
H          H       0.11218   0.36623   0.35688 
H          H       0.10820   0.33479   0.16683 
H          H       0.10327   0.34201   0.33219 
H          H       0.11492   0.33503   0.36526 
H          H       0.13434   0.33866   0.19734 
H          H       0.14179   0.34328   0.41209 
H          H       0.14786   0.36763   0.18543 
H          H       0.14617   0.36622   0.39457 
Br         Br      0.13858   0.40330   0.05246 
N          N       0.12491   0.35689   0.25255 
C          C       0.14237   0.34725   0.27680 
C          C       0.14024   0.35998   0.28089 
Br         Br      0.21336   0.27001   0.42863 
N          N       0.21009   0.31201   0.25849 
C          C       0.19200   0.32086   0.28347 
C          C       0.19461   0.30844   0.28675 
Br         Br      0.19516   0.59686   0.06343 
N          N       0.20847   0.64323   0.25371 
C          C       0.19092   0.65275   0.27770 
C          C       0.19312   0.64006   0.28206 
O          O       0.31530   0.80403   0.22171 
C          C       0.31231   0.76828   0.08882 
C          C       0.30083   0.75324   0.29429 
C          C       0.32765   0.77235   0.29394 
H          H       0.31940   0.77883   0.04417 
H          H       0.30167   0.76478   0.04637 
H          H       0.31559   0.76069   0.04895 
H          H       0.29643   0.74606   0.17786 
H          H       0.29097   0.75214   0.34549 
H          H       0.30436   0.74674   0.36413 
H          H       0.33485   0.77557   0.17699 
H          H       0.32819   0.76322   0.34070 
H          H       0.33411   0.78162   0.37600 
H          H       0.32914   0.79654   0.20597 
H          H       0.32445   0.79885   0.42282 
H          H       0.30054   0.77984   0.19341 
H          H       0.30181   0.77948   0.40358 
C          C       0.35368   0.89843   0.07249 
C          C       0.36552   0.91334   0.27749 
C          C       0.33847   0.89489   0.27774 
H          H       0.34630   0.88793   0.02823 
H          H       0.36429   0.90166   0.03001 
H          H       0.35076   0.90624   0.03243 
H          H       0.37011   0.92056   0.16118 
H          H       0.37519   0.91389   0.32627 
H          H       0.36255   0.92010   0.35091 
H          H       0.33131   0.89189   0.16071 
H          H       0.33827   0.90421   0.32494 
H          H       0.33182   0.88566   0.35926 
H          H       0.33609   0.87018   0.19223 
H          H       0.34088   0.86779   0.40837 
H          H       0.36484   0.88632   0.17736 
H          H       0.36371   0.88680   0.38670 
Br         Br      0.39872   0.93966   0.45161 
N          N       0.35363   0.89806   0.24602 
C          C       0.34479   0.87112   0.27276 
C          C       0.35721   0.88615   0.27431 
Br         Br      0.28875   0.71923   0.06033 
N          N       0.31232   0.76869   0.26236 
C          C       0.32043   0.79544   0.28785 
C          C       0.30829   0.78027   0.29038 
O          O       0.68362   0.52900   0.20883 
C          C       0.68702   0.56501   0.07004 
C          C       0.69864   0.58000   0.27540 
C          C       0.67174   0.56114   0.27516 
H          H       0.67983   0.55448   0.02566 
H          H       0.69764   0.56838   0.02760 
H          H       0.68389   0.57270   0.03009 
H          H       0.70312   0.58718   0.15893 
H          H       0.70844   0.58098   0.32672 
H          H       0.69522   0.58659   0.34509 
H          H       0.66455   0.55800   0.15821 
H          H       0.67134   0.57034   0.32188 
H          H       0.66520   0.55190   0.35724 
H          H       0.66993   0.53666   0.18812 
H          H       0.67451   0.53453   0.40639 
H          H       0.69843   0.55310   0.17368 
H          H       0.69742   0.55369   0.38383 
Br         Br      0.71100   0.61415   0.03510 
N          N       0.68701   0.56461   0.24357 
C          C       0.67859   0.53778   0.27135 
C          C       0.69085   0.55289   0.27172 
C          C       0.64599   0.43476   0.07058 
C          C       0.63442   0.41975   0.27596 
C          C       0.66129   0.43870   0.27569 
H          H       0.65314   0.44530   0.02619 
H          H       0.63536   0.43134   0.02814 
H          H       0.64917   0.42711   0.03063 
H          H       0.62999   0.41257   0.15950 
H          H       0.62459   0.41873   0.32708 
H          H       0.63787   0.41319   0.34587 
H          H       0.66848   0.44188   0.15876 
H          H       0.66173   0.42951   0.32226 
H          H       0.66780   0.44794   0.35790 
H          H       0.66298   0.46312   0.18860 
H          H       0.65840   0.46522   0.40699 
H          H       0.63451   0.44661   0.17411 
H          H       0.63550   0.44600   0.38431 
Br         Br      0.62217   0.38558   0.04011 
N          N       0.64600   0.43517   0.24411 
C          C       0.65432   0.46197   0.27200 
C          C       0.64210   0.44684   0.27226 
O          O       0.35073   0.19580   0.20954 
C          C       0.35445   0.23199   0.06915 
C          C       0.36615   0.24694   0.27449 
C          C       0.33921   0.22822   0.27427 
H          H       0.34720   0.22148   0.02479 
H          H       0.36504   0.23526   0.02671 
H          H       0.35141   0.23976   0.02925 
H          H       0.37074   0.25409   0.15791 
H          H       0.37590   0.24785   0.32678 
H          H       0.36275   0.25359   0.34316 
H          H       0.33202   0.22514   0.15732 
H          H       0.33888   0.23746   0.32112 
H          H       0.33261   0.21900   0.35630 
H          H       0.33722   0.20366   0.18723 
H          H       0.34170   0.20152   0.40592 
H          H       0.36566   0.21988   0.17238 
H          H       0.36475   0.22055   0.38262 
Br         Br      0.37590   0.28061   0.04456 
N          N       0.35444   0.23157   0.24266 
C          C       0.34581   0.20470   0.27096 
C          C       0.35816   0.21977   0.27081 
O          O       0.31572   0.13761   0.20939 
C          C       0.31197   0.10143   0.07029 
C          C       0.30025   0.08649   0.27563 
C          C       0.32721   0.10521   0.27542 
H          H       0.31924   0.11194   0.02588 
H          H       0.30140   0.09819   0.02782 
H          H       0.31499   0.09364   0.03044 
H          H       0.29561   0.07936   0.15896 
H          H       0.29052   0.08559   0.32844 
H          H       0.30368   0.07984   0.34377 
H          H       0.33439   0.10824   0.15843 
H          H       0.32754   0.09598   0.32273 
H          H       0.33381   0.11445   0.35705 
H          H       0.32923   0.12975   0.18801 
H          H       0.32474   0.13193   0.40646 
H          H       0.30074   0.11354   0.17378 
H          H       0.30173   0.11293   0.38407 
Br         Br      0.29358   0.05371   0.05877 
N          N       0.31197   0.10185   0.24379 
C          C       0.32063   0.12872   0.27150 
C          C       0.30827   0.11367   0.27190 
O          O       0.15529   0.01779   0.20586 
C          C       0.12325   0.02190   0.07841 
C          C       0.12003   0.03364   0.28359 
C          C       0.11165   0.00667   0.28355 
H          H       0.12641   0.01456   0.03377 
H          H       0.13064   0.03250   0.03609 
H          H       0.11250   0.01893   0.03834 
H          H       0.11763   0.03838   0.16681 
H          H       0.12892   0.04332   0.33639 
H          H       0.11007   0.03035   0.35340 
H          H       0.10751   0.99949   0.16660 
H          H       0.10211   0.00643   0.33068 
H          H       0.11426   0.00003   0.36507 
H          H       0.13387   0.00438   0.19531 
H          H       0.14119   0.00904   0.41060 
H          H       0.14657   0.03323   0.18444 
H          H       0.14489   0.03175   0.39403 
Br         Br      0.13988   0.07320   0.40482 
N          N       0.12359   0.02186   0.25194 
C          C       0.14172   0.01303   0.27559 
C          C       0.13909   0.02545   0.28004 
O          O       0.82134   0.01695   0.21610 
C          C       0.78925   0.02110   0.08417 
C          C       0.78611   0.03284   0.28943 
C          C       0.77764   0.00583   0.28933 
H          H       0.79242   0.01378   0.03952 
H          H       0.79660   0.03173   0.04180 
H          H       0.77848   0.01811   0.04423 
H          H       0.78328   0.03728   0.17350 
H          H       0.79519   0.04260   0.33764 
H          H       0.77635   0.02982   0.36278 
H          H       0.77355   0.99867   0.17230 
H          H       0.76808   0.00557   0.33632 
H          H       0.78024   0.99922   0.37128 
H          H       0.79993   0.00361   0.20120 
H          H       0.80699   0.00815   0.41791 
H          H       0.81254   0.03232   0.18944 
H          H       0.81087   0.03101   0.39926 
Br         Br      0.78156   0.05915   0.47535 
N          N       0.78959   0.02102   0.25771 
C          C       0.80769   0.01221   0.28293 
C          C       0.80508   0.02463   0.28584 
O          O       0.98300   0.13720   0.21119 
C          C       0.97988   0.10127   0.07067 
C          C       0.96833   0.08624   0.27600 
C          C       0.99518   0.10527   0.27581 
H          H       0.98701   0.11182   0.02635 
H          H       0.96927   0.09786   0.02821 
H          H       0.98307   0.09361   0.03078 
H          H       0.96380   0.07909   0.15932 
H          H       0.95852   0.08516   0.32869 
H          H       0.97190   0.07972   0.34429 
H          H       0.00238   0.10845   0.15888 
H          H       0.99567   0.09612   0.32262 
H          H       0.00167   0.11452   0.35787 
H          H       0.99677   0.12964   0.18929 
H          H       0.99218   0.13168   0.40787 
H          H       0.96837   0.11309   0.17374 
H          H       0.96927   0.11242   0.38404 
Br         Br      0.96036   0.05301   0.05535 
N          N       0.97987   0.10168   0.24418 
C          C       0.98811   0.12846   0.27280 
C          C       0.97592   0.11332   0.27235 
O          O       0.98307   0.80422   0.20864 
C          C       0.97952   0.76811   0.06853 
C          C       0.96786   0.75314   0.27389 
C          C       0.99478   0.77194   0.27367 
H          H       0.98675   0.77863   0.02416 
H          H       0.96893   0.76480   0.02610 
H          H       0.98259   0.76037   0.02865 
H          H       0.96329   0.74599   0.15731 
H          H       0.95809   0.75220   0.32606 
H          H       0.97129   0.74652   0.34269 
H          H       0.00197   0.77502   0.15666 
H          H       0.99516   0.76273   0.32083 
H          H       0.00135   0.78119   0.35541 
H          H       0.99667   0.79647   0.18629 
H          H       0.99218   0.79858   0.40499 
H          H       0.96821   0.78013   0.17194 
H          H       0.96917   0.77950   0.38215 
Br         Br      0.95798   0.71943   0.04317 
N          N       0.97953   0.76852   0.24205 
C          C       0.98806   0.79538   0.27007 
C          C       0.97576   0.78029   0.27018 
O          O       0.84389   0.98137   0.21200 
C          C       0.87538   0.97647   0.08691 
C          C       0.87822   0.96449   0.29209 
C          C       0.88723   0.99160   0.29202 
H          H       0.87245   0.98399   0.04226 
H          H       0.86783   0.96592   0.04462 
H          H       0.88606   0.97920   0.04686 
H          H       0.88057   0.95969   0.17555 
H          H       0.86913   0.95492   0.34359 
H          H       0.88807   0.96748   0.36306 
H          H       0.89152   0.99875   0.17494 
H          H       0.89663   0.99161   0.33940 
H          H       0.88482   0.99839   0.37345 
H          H       0.86536   0.99450   0.20415 
H          H       0.85788   0.98987   0.41863 
H          H       0.85209   0.96554   0.19344 
H          H       0.85379   0.96708   0.40285 
Br         Br      0.86559   0.92726   0.38060 
N          N       0.87505   0.97653   0.26043 
C          C       0.85736   0.98589   0.28354 
C          C       0.85966   0.97327   0.28860 
C          C       0.21006   0.97812   0.07377 
C          C       0.21315   0.96629   0.27885 
C          C       0.22182   0.99331   0.27895 
H          H       0.20702   0.98555   0.02926 
H          H       0.20260   0.96752   0.03153 
H          H       0.22077   0.98097   0.03363 
H          H       0.21554   0.96154   0.16219 
H          H       0.20413   0.95667   0.33013 
H          H       0.22304   0.96943   0.34948 
H          H       0.22605   0.00046   0.16187 
H          H       0.23129   0.99343   0.32656 
H          H       0.21930   0.00001   0.36039 
H          H       0.19973   0.99590   0.19181 
H          H       0.19233   0.99120   0.40676 
H          H       0.18678   0.96701   0.18000 
H          H       0.18846   0.96844   0.38931 
Br         Br      0.19515   0.92999   0.49441 
N          N       0.20976   0.97818   0.24729 
C          C       0.19182   0.98725   0.27152 
C          C       0.19431   0.97474   0.27558 
O          O       0.01774   0.86246   0.21014 
C          C       0.02119   0.89851   0.07019 
C          C       0.03280   0.91350   0.27558 
C          C       0.00591   0.89463   0.27529 
H          H       0.01400   0.88798   0.02581 
H          H       0.03180   0.90187   0.02775 
H          H       0.01804   0.90619   0.03023 
H          H       0.03726   0.92067   0.15907 
H          H       0.04260   0.91447   0.32682 
H          H       0.02938   0.92009   0.34537 
H          H       0.99871   0.89147   0.15838 
H          H       0.00551   0.90385   0.32169 
H          H       0.99936   0.88542   0.35761 
H          H       0.00410   0.87017   0.18809 
H          H       0.00862   0.86806   0.40669 
H          H       0.03256   0.88656   0.17364 
H          H       0.03159   0.88719   0.38391 
Br         Br      0.04453   0.94767   0.04899 
N          N       0.02117   0.89810   0.24372 
C          C       0.01273   0.87127   0.27176 
C          C       0.02500   0.88637   0.27188 
O          O       0.01733   0.19548   0.21403 
C          C       0.02046   0.23140   0.07418 
C          C       0.03200   0.24642   0.27955 
C          C       0.00515   0.22740   0.27930 
H          H       0.01333   0.22085   0.02980 
H          H       0.03108   0.23484   0.03173 
H          H       0.01725   0.23904   0.03426 
H          H       0.03646   0.25359   0.16301 
H          H       0.04183   0.24749   0.33130 
H          H       0.02848   0.25295   0.34876 
H          H       0.99795   0.22421   0.16235 
H          H       0.00466   0.23656   0.32604 
H          H       0.99866   0.21815   0.36140 
H          H       0.00356   0.20304   0.19241 
H          H       0.00815   0.20097   0.41095 
H          H       0.03199   0.21960   0.17750 
H          H       0.03104   0.22024   0.38777 
Br         Br      0.04294   0.28036   0.04893 
N          N       0.02045   0.23099   0.24769 
C          C       0.01222   0.20422   0.27592 
C          C       0.02441   0.21936   0.27586 
H          H       0.47557   0.99195   0.33898 
H          H       0.52635   0.01083   0.33790 
N          N       0.10496   0.23056   0.81008 
C          C       0.09705   0.21658   0.81600 
C          C       0.12756   0.25195   0.79029 
C          C       0.11622   0.19197   0.82972 
C          C       0.12267   0.18398   0.82395 
C          C       0.13672   0.19007   0.78326 
C          C       0.14433   0.20429   0.74386 
C          C       0.13796   0.21231   0.75041 
N          N       0.14277   0.18141   0.78069 
C          C       0.15586   0.18560   0.79617 
N          N       0.10321   0.20876   0.81199 
C          C       0.11716   0.21480   0.80117 
C          C       0.08178   0.20986   0.81768 
C          C       0.14174   0.25822   0.74896 
C          C       0.14982   0.27261   0.73762 
C          C       0.14393   0.28093   0.76566 
C          C       0.12984   0.27475   0.81045 
C          C       0.12171   0.26036   0.82199 
N          N       0.15268   0.29561   0.75411 
C          C       0.14856   0.30434   0.71862 
C          C       0.15832   0.31940   0.71829 
C          C       0.17285   0.32504   0.72121 
C          C       0.18117   0.00598   0.70791 
N          N       0.12494   0.22876   0.79430 
C          C       0.11893   0.23671   0.79968 
C          C       0.12385   0.20625   0.79392 
C          C       0.07523   0.21776   0.79487 
C          C       0.06081   0.21126   0.78551 
C          C       0.05274   0.19687   0.79704 
C          C       0.05918   0.18896   0.82580 
C          C       0.07358   0.19541   0.83554 
N          N       0.03804   0.19068   0.78176 
C          C       0.02976   0.17817   0.72724 
C          C       0.01464   0.17244   0.72340 
C          C       0.00864   0.18099   0.72374 
C          C       0.32738   0.17524   0.71978 
N          N       0.22850   0.10338   0.81293 
C          C       0.23640   0.11735   0.81991 
C          C       0.20591   0.08199   0.79118 
C          C       0.21726   0.14200   0.83118 
C          C       0.21082   0.14999   0.82492 
C          C       0.19677   0.14390   0.78391 
C          C       0.18916   0.12968   0.74462 
C          C       0.19553   0.12165   0.75182 
N          N       0.19071   0.15256   0.78097 
C          C       0.17763   0.14838   0.79519 
N          N       0.23028   0.12518   0.81542 
C          C       0.21631   0.11915   0.80331 
C          C       0.25168   0.12402   0.82311 
C          C       0.19160   0.07567   0.75759 
C          C       0.18353   0.06128   0.74560 
C          C       0.18958   0.05301   0.76493 
C          C       0.20380   0.05924   0.80212 
C          C       0.21189   0.07361   0.81448 
N          N       0.18089   0.03833   0.75210 
C          C       0.18503   0.02973   0.70916 
C          C       0.17541   0.01465   0.70877 
C          C       0.16087   0.00890   0.71130 
C          C       0.15268   0.32819   0.71656 
N          N       0.20855   0.10519   0.79561 
C          C       0.21451   0.09723   0.80122 
C          C       0.20964   0.12771   0.79565 
C          C       0.25817   0.11602   0.80646 
C          C       0.27258   0.12243   0.79757 
C          C       0.28071   0.13683   0.80333 
C          C       0.27434   0.14487   0.82664 
C          C       0.25993   0.13850   0.83605 
N          N       0.29538   0.14290   0.78688 
C          C       0.30370   0.15525   0.72718 
C          C       0.31877   0.16080   0.72163 
C          C       0.32458   0.15208   0.71978 
C          C       0.00620   0.15798   0.72100 
N          N       0.43808   0.22974   0.80828 
C          C       0.43013   0.21578   0.81489 
C          C       0.46070   0.25107   0.78885 
C          C       0.44902   0.19093   0.83204 
C          C       0.45539   0.18287   0.83058 
C          C       0.46959   0.18893   0.79956 
C          C       0.47742   0.20321   0.76436 
C          C       0.47110   0.21131   0.76598 
N          N       0.47558   0.18019   0.80081 
C          C       0.48852   0.18424   0.82897 
C          C       0.49377   0.17443   0.82305 
C          C       0.48495   0.15994   0.80490 
C          C       0.49089   0.15139   0.80411 
O          O       0.52853   0.17723   0.83725 
C          C       0.53707   0.18987   0.74354 
N          N       0.43622   0.20789   0.81324 
C          C       0.45020   0.21388   0.80431 
C          C       0.41485   0.20919   0.81583 
C          C       0.47494   0.25734   0.75151 
C          C       0.48300   0.27172   0.73747 
C          C       0.47701   0.28002   0.75872 
C          C       0.46286   0.27385   0.80018 
C          C       0.45477   0.25948   0.81449 
N          N       0.48570   0.29468   0.74413 
C          C       0.48157   0.30331   0.70267 
C          C       0.49126   0.31838   0.70143 
C          C       0.50578   0.32405   0.70410 
C          C       0.51527   0.00674   0.83306 
O          O       0.49037   0.01978   0.83262 
C          C       0.47756   0.01562   0.74316 
N          N       0.45801   0.22784   0.79668 
C          C       0.45207   0.23584   0.79946 
C          C       0.45684   0.20526   0.80082 
C          C       0.40846   0.21725   0.79544 
C          C       0.39406   0.21093   0.78610 
C          C       0.38584   0.19654   0.79503 
C          C       0.39211   0.18845   0.82165 
C          C       0.40651   0.19473   0.83155 
N          N       0.37116   0.19055   0.77968 
C          C       0.36277   0.17814   0.72264 
C          C       0.34769   0.17261   0.71934 
C          C       0.34187   0.18133   0.71958 
C          C       0.66211   0.17631   0.82444 
O          O       0.64924   0.13839   0.83109 
C          C       0.65359   0.12966   0.74800 
N          N       0.56315   0.10466   0.68258 
C          C       0.57075   0.11866   0.68159 
C          C       0.54092   0.08282   0.69123 
C          C       0.55075   0.14246   0.69238 
C          C       0.54397   0.15008   0.70947 
C          C       0.52955   0.14338   0.71901 
C          C       0.52181   0.12889   0.70381 
C          C       0.52854   0.12123   0.68666 
N          N       0.52320   0.15171   0.74110 
C          C       0.51079   0.14748   0.79927 
C          C       0.50531   0.15704   0.81013 
C          C       0.51409   0.17151   0.82190 
C          C       0.50816   0.18000   0.83325 
O          O       0.47047   0.15434   0.79380 
C          C       0.46241   0.14131   0.70639 
N          N       0.56421   0.12613   0.67934 
C          C       0.55020   0.11971   0.67646 
C          C       0.58604   0.12570   0.69214 
C          C       0.52645   0.07586   0.67124 
C          C       0.51867   0.06150   0.69008 
C          C       0.52511   0.05386   0.73118 
C          C       0.53962   0.06070   0.74721 
C          C       0.54743   0.07506   0.72753 
N          N       0.51650   0.03923   0.75254 
C          C       0.51999   0.03081   0.82333 
C          C       0.51003   0.01585   0.82992 
C          C       0.49557   0.01057   0.82864 
C          C       0.48559   0.32713   0.70064 
N          N       0.54274   0.10570   0.67685 
C          C       0.54915   0.09810   0.67988 
C          C       0.54308   0.12791   0.68332 
C          C       0.59289   0.11801   0.68201 
C          C       0.60726   0.12458   0.69934 
C          C       0.61503   0.13883   0.72912 
C          C       0.60831   0.14666   0.73450 
C          C       0.59392   0.14012   0.71646 
N          N       0.62968   0.14488   0.74956 
C          C       0.63807   0.15684   0.81879 
C          C       0.65307   0.16194   0.82502 
C          C       0.65841   0.15282   0.82611 
C          C       0.33908   0.15817   0.71781 
N          N       0.77272   0.22984   0.75316 
C          C       0.76487   0.21590   0.74763 
C          C       0.79524   0.25135   0.74871 
C          C       0.78401   0.19132   0.71419 
C          C       0.79056   0.18343   0.71847 
C          C       0.80497   0.18988   0.72857 
C          C       0.81292   0.20441   0.72620 
C          C       0.80643   0.21232   0.72184 
N          N       0.81110   0.18132   0.74062 
C          C       0.82325   0.18506   0.80460 
C          C       0.82859   0.17538   0.80714 
C          C       0.81970   0.16089   0.80403 
C          C       0.82556   0.15231   0.81112 
O          O       0.86338   0.17806   0.80191 
C          C       0.87155   0.19108   0.71477 
N          N       0.77108   0.20814   0.73401 
C          C       0.78507   0.21432   0.72560 
C          C       0.74959   0.20914   0.75792 
C          C       0.80949   0.25796   0.71039 
C          C       0.81747   0.27238   0.71161 
C          C       0.81139   0.28040   0.74945 
C          C       0.79724   0.27387   0.79219 
C          C       0.78923   0.25946   0.79102 
N          N       0.81997   0.29513   0.74719 
C          C       0.81562   0.30379   0.71993 
C          C       0.82516   0.31889   0.72478 
C          C       0.83972   0.32478   0.72712 
C          C       0.84698   0.00481   0.71482 
N          N       0.79278   0.22826   0.73030 
C          C       0.78671   0.23613   0.74403 
C          C       0.79189   0.20586   0.71852 
C          C       0.74320   0.21712   0.78601 
C          C       0.72880   0.21076   0.79611 
C          C       0.72056   0.19642   0.78020 
C          C       0.72686   0.18839   0.74930 
C          C       0.74127   0.19471   0.73908 
N          N       0.70587   0.19054   0.79039 
C          C       0.69693   0.17775   0.82572 
C          C       0.68192   0.17279   0.82652 
C          C       0.67654   0.18190   0.81924 
C          C       0.99413   0.17470   0.72338 
N          N       0.89525   0.10231   0.80303 
C          C       0.90327   0.11627   0.81069 
C          C       0.87254   0.08107   0.78197 
C          C       0.88457   0.14131   0.82448 
C          C       0.87826   0.14942   0.82119 
C          C       0.86411   0.14341   0.78682 
C          C       0.85629   0.12916   0.74997 
C          C       0.86254   0.12101   0.75375 
N          N       0.85815   0.15216   0.78822 
C          C       0.84518   0.14806   0.81371 
C          C       0.83998   0.15789   0.81061 
C          C       0.84888   0.17242   0.80517 
C          C       0.84299   0.18099   0.80970 
O          O       0.80521   0.15532   0.80363 
C          C       0.79691   0.14227   0.71785 
N          N       0.89722   0.12420   0.80812 
C          C       0.88329   0.11829   0.79714 
C          C       0.91852   0.12286   0.81310 
C          C       0.85841   0.07494   0.73869 
C          C       0.85019   0.06056   0.72746 
C          C       0.85592   0.05212   0.75749 
C          C       0.86997   0.05816   0.80406 
C          C       0.87822   0.07253   0.81541 
N          N       0.84706   0.03745   0.74722 
C          C       0.85110   0.02866   0.71165 
C          C       0.84134   0.01360   0.71508 
C          C       0.82683   0.00797   0.72123 
C          C       0.81927   0.32744   0.72663 
N          N       0.87540   0.10435   0.78865 
C          C       0.88129   0.09629   0.79241 
C          C       0.87673   0.12699   0.79195 
C          C       0.92498   0.11495   0.78424 
C          C       0.93940   0.12138   0.77524 
C          C       0.94755   0.13573   0.79322 
C          C       0.94119   0.14363   0.82837 
C          C       0.92679   0.13724   0.83780 
N          N       0.96224   0.14188   0.77793 
C          C       0.97057   0.15452   0.72794 
C          C       0.98568   0.16024   0.72384 
C          C       0.99169   0.15169   0.72204 
C          C       0.67284   0.15842   0.83140 
O          O       0.68564   0.19635   0.81410 
C          C       0.68110   0.20468   0.72426 
N          N       0.10463   0.56236   0.74460 
C          C       0.09676   0.54841   0.74069 
C          C       0.12715   0.58387   0.74006 
C          C       0.11594   0.52380   0.72047 
C          C       0.12251   0.51595   0.72998 
C          C       0.13692   0.52243   0.73854 
C          C       0.14486   0.53694   0.72813 
C          C       0.13835   0.54482   0.71852 
N          N       0.14310   0.51393   0.75628 
C          C       0.15526   0.51791   0.82184 
C          C       0.16085   0.50844   0.82682 
C          C       0.15217   0.49390   0.82544 
C          C       0.15826   0.48552   0.83052 
O          O       0.19589   0.51180   0.82490 
C          C       0.20394   0.52442   0.72871 
N          N       0.10299   0.54064   0.72900 
C          C       0.11697   0.54680   0.72106 
C          C       0.08152   0.54167   0.75143 
C          C       0.14152   0.59046   0.71101 
C          C       0.14953   0.60487   0.71303 
C          C       0.14336   0.61293   0.74256 
C          C       0.12905   0.60642   0.77577 
C          C       0.12101   0.59201   0.77361 
N          N       0.15197   0.62765   0.74114 
C          C       0.14779   0.63641   0.71052 
C          C       0.15745   0.65148   0.71562 
C          C       0.17197   0.65721   0.71610 
C          C       0.18140   0.33952   0.71827 
O          O       0.15582   0.35164   0.70567 
N          N       0.12468   0.56076   0.72415 
C          C       0.11860   0.56863   0.73581 
C          C       0.12381   0.53835   0.71773 
C          C       0.07517   0.54956   0.78912 
C          C       0.06077   0.54322   0.79886 
C          C       0.05250   0.52898   0.77303 
C          C       0.05875   0.52104   0.73301 
C          C       0.07316   0.52735   0.72347 
N          N       0.03781   0.52310   0.78312 
C          C       0.02887   0.51020   0.81184 
C          C       0.01385   0.50521   0.81406 
C          C       0.00843   0.51427   0.80649 
C          C       0.32870   0.50943   0.80858 
O          O       0.31625   0.47159   0.82610 
C          C       0.32064   0.46291   0.74252 
N          N       0.22899   0.43746   0.74911 
C          C       0.23683   0.45141   0.74578 
C          C       0.20644   0.41594   0.74128 
C          C       0.21765   0.47600   0.72096 
C          C       0.21107   0.48386   0.72962 
C          C       0.19665   0.47737   0.73701 
C          C       0.18873   0.46286   0.72593 
C          C       0.19525   0.45498   0.71707 
N          N       0.19046   0.48586   0.75469 
C          C       0.17826   0.48186   0.81897 
C          C       0.17270   0.49135   0.82517 
C          C       0.18137   0.50589   0.82186 
C          C       0.17529   0.51427   0.82857 
O          O       0.13766   0.48802   0.83137 
C          C       0.12950   0.47532   0.73717 
N          N       0.23062   0.45918   0.73261 
C          C       0.21663   0.45300   0.72274 
C          C       0.25208   0.45821   0.75814 
C          C       0.19208   0.40942   0.71059 
C          C       0.18403   0.39501   0.71143 
C          C       0.19012   0.38688   0.74118 
C          C       0.20440   0.39332   0.77563 
C          C       0.21250   0.40773   0.77491 
N          N       0.18142   0.37217   0.73933 
C          C       0.18552   0.36334   0.70904 
C          C       0.17576   0.34829   0.71456 
C          C       0.16126   0.34266   0.71600 
C          C       0.15172   0.66017   0.71930 
N          N       0.20894   0.43906   0.72531 
C          C       0.21500   0.43118   0.73831 
C          C       0.20979   0.46146   0.71792 
C          C       0.25847   0.45041   0.79956 
C          C       0.27288   0.45683   0.80994 
C          C       0.28111   0.47104   0.78079 
C          C       0.27480   0.47887   0.73734 
C          C       0.26039   0.47250   0.72745 
N          N       0.29581   0.47699   0.79039 
C          C       0.30472   0.48996   0.81546 
C          C       0.31975   0.49505   0.81563 
C          C       0.32524   0.48604   0.81839 
C          C       0.00482   0.49084   0.82061 
O          O       0.01749   0.52872   0.79875 
C          C       0.01278   0.53699   0.71112 
N          N       0.43939   0.56365   0.75266 
C          C       0.43157   0.54968   0.74685 
C          C       0.46180   0.58522   0.74823 
C          C       0.45087   0.52529   0.71000 
C          C       0.45743   0.51742   0.71433 
C          C       0.47182   0.52386   0.72806 
C          C       0.47976   0.53840   0.72930 
C          C       0.47325   0.54630   0.72493 
N          N       0.47791   0.51527   0.74039 
C          C       0.49005   0.51893   0.80414 
C          C       0.49525   0.50914   0.80727 
C          C       0.48624   0.49466   0.80545 
C          C       0.49194   0.48596   0.81295 
O          O       0.52984   0.51140   0.80232 
C          C       0.53814   0.52435   0.71397 
N          N       0.43786   0.54201   0.73308 
C          C       0.45184   0.54821   0.72504 
C          C       0.41632   0.54289   0.75648 
C          C       0.47608   0.59192   0.71217 
C          C       0.48395   0.60635   0.71298 
C          C       0.47772   0.61428   0.74827 
C          C       0.46353   0.60764   0.78865 
C          C       0.45563   0.59323   0.78780 
N          N       0.48620   0.62901   0.74621 
C          C       0.48181   0.63764   0.71913 
C          C       0.49134   0.65273   0.72417 
C          C       0.50589   0.65861   0.72708 
C          C       0.51432   0.33853   0.70287 
N          N       0.45951   0.56220   0.73004 
C          C       0.45335   0.56997   0.74375 
C          C       0.45872   0.53983   0.71798 
C          C       0.40989   0.55072   0.79315 
C          C       0.39548   0.54432   0.80125 
C          C       0.38728   0.53008   0.77489 
C          C       0.39361   0.52220   0.73585 
C          C       0.40803   0.52856   0.72777 
N          N       0.37258   0.52415   0.78330 
C          C       0.36368   0.51124   0.81255 
C          C       0.34865   0.50617   0.81305 
C          C       0.34315   0.51516   0.80229 
C          C       0.66040   0.50824   0.71875 
O          O       0.64925   0.47073   0.70983 
N          N       0.56174   0.43592   0.80988 
C          C       0.56969   0.44988   0.81644 
C          C       0.53915   0.41457   0.78853 
C          C       0.55082   0.47471   0.82339 
C          C       0.54448   0.48278   0.81961 
C          C       0.53031   0.47671   0.78722 
C          C       0.52247   0.46243   0.75295 
C          C       0.52876   0.45431   0.75711 
N          N       0.52435   0.48547   0.78813 
C          C       0.51141   0.48145   0.81436 
C          C       0.50634   0.49139   0.81135 
C          C       0.51536   0.50590   0.80514 
C          C       0.50963   0.51461   0.80930 
O          O       0.47177   0.48921   0.80707 
C          C       0.46339   0.47632   0.71790 
N          N       0.56356   0.45774   0.81178 
C          C       0.54962   0.45174   0.80002 
C          C       0.58494   0.45655   0.81964 
C          C       0.52489   0.40828   0.75232 
C          C       0.51683   0.39390   0.73928 
C          C       0.52284   0.38561   0.76025 
C          C       0.53700   0.39180   0.80073 
C          C       0.54510   0.40617   0.81403 
N          N       0.51416   0.37094   0.74566 
C          C       0.51832   0.36235   0.70383 
C          C       0.50865   0.34728   0.70208 
C          C       0.49413   0.34160   0.70254 
C          C       0.48545   0.66130   0.72566 
N          N       0.54181   0.43779   0.79276 
C          C       0.54779   0.42980   0.79853 
C          C       0.54299   0.46036   0.79344 
C          C       0.59145   0.44861   0.79722 
C          C       0.60586   0.45507   0.78825 
C          C       0.61397   0.46946   0.79970 
C          C       0.60757   0.47741   0.82883 
C          C       0.59317   0.47099   0.83834 
N          N       0.62864   0.47562   0.78328 
C          C       0.63686   0.48805   0.72563 
C          C       0.65196   0.49378   0.72078 
C          C       0.65795   0.48522   0.72012 
C          C       0.33969   0.49179   0.82149 
O          O       0.35215   0.52961   0.79165 
C          C       0.34726   0.53777   0.70518 
N          N       0.77111   0.56376   0.81137 
C          C       0.76316   0.54978   0.81791 
C          C       0.79375   0.58507   0.78956 
C          C       0.78199   0.52490   0.82460 
C          C       0.78836   0.51684   0.82073 
C          C       0.80252   0.52292   0.78703 
C          C       0.81030   0.53718   0.75092 
C          C       0.80400   0.54528   0.75515 
N          N       0.80854   0.51423   0.78876 
C          C       0.82149   0.51837   0.81721 
C          C       0.82675   0.50858   0.81393 
C          C       0.81787   0.49405   0.80989 
C          C       0.82378   0.48549   0.81281 
O          O       0.86153   0.51125   0.80196 
C          C       0.86970   0.52417   0.71270 
N          N       0.76924   0.54191   0.81281 
C          C       0.78319   0.54788   0.80062 
C          C       0.74790   0.54315   0.82135 
C          C       0.80801   0.59131   0.75379 
C          C       0.81614   0.60568   0.74084 
C          C       0.81019   0.61402   0.76143 
C          C       0.79602   0.60790   0.80130 
C          C       0.78786   0.59353   0.81458 
N          N       0.81894   0.62868   0.74696 
C          C       0.81488   0.63734   0.70445 
C          C       0.82464   0.65239   0.70254 
C          C       0.83915   0.65799   0.70383 
C          C       0.84804   0.33927   0.72605 
O          O       0.82186   0.35069   0.72107 
N          N       0.79101   0.56184   0.79344 
C          C       0.78508   0.56984   0.79960 
C          C       0.78979   0.53925   0.79333 
C          C       0.74140   0.55109   0.79911 
C          C       0.72699   0.54465   0.79007 
C          C       0.71888   0.53026   0.80128 
C          C       0.72526   0.52230   0.83034 
C          C       0.73966   0.52870   0.83994 
N          N       0.70421   0.52411   0.78453 
C          C       0.69600   0.51169   0.72636 
C          C       0.68090   0.50595   0.72113 
C          C       0.67491   0.51451   0.71973 
C          C       0.99401   0.50864   0.81357 
O          O       0.98130   0.47072   0.82393 
C          C       0.98569   0.46203   0.74067 
N          N       0.89424   0.43692   0.75364 
C          C       0.90206   0.45089   0.74744 
C          C       0.87179   0.41537   0.74880 
C          C       0.88282   0.47533   0.70944 
C          C       0.87623   0.48319   0.71359 
C          C       0.86183   0.47671   0.72412 
C          C       0.85390   0.46218   0.72135 
C          C       0.86043   0.45430   0.71709 
N          N       0.85567   0.48525   0.73776 
C          C       0.84354   0.48146   0.80259 
C          C       0.83818   0.49112   0.80739 
C          C       0.84704   0.50563   0.80375 
C          C       0.84117   0.51419   0.81251 
O          O       0.80336   0.48837   0.81042 
C          C       0.79510   0.47539   0.72277 
N          N       0.89581   0.45858   0.73203 
C          C       0.88183   0.45238   0.72266 
C          C       0.91732   0.45767   0.75877 
C          C       0.85750   0.40868   0.71292 
C          C       0.84960   0.39425   0.71428 
C          C       0.85580   0.38630   0.74981 
C          C       0.87000   0.39291   0.79000 
C          C       0.87793   0.40733   0.78875 
N          N       0.84729   0.37157   0.74777 
C          C       0.85167   0.36293   0.72022 
C          C       0.84214   0.34783   0.72504 
C          C       0.82759   0.34193   0.72799 
C          C       0.81905   0.66121   0.70231 
N          N       0.87415   0.43841   0.72817 
C          C       0.88026   0.43061   0.74357 
C          C       0.87497   0.46079   0.71422 
C          C       0.92372   0.44981   0.79513 
C          C       0.93812   0.45620   0.80464 
C          C       0.94634   0.47046   0.77996 
C          C       0.94004   0.47837   0.74136 
C          C       0.92563   0.47202   0.73200 
N          N       0.96104   0.47637   0.78919 
C          C       0.96997   0.48926   0.81867 
C          C       0.98498   0.49427   0.81832 
C          C       0.99038   0.48518   0.81837 
C          C       0.67246   0.49149   0.71949 
N          N       0.10508   0.89705   0.81287 
C          C       0.09715   0.88309   0.82057 
C          C       0.12768   0.91841   0.79018 
C          C       0.11611   0.85832   0.83037 
C          C       0.12246   0.85025   0.82372 
C          C       0.13653   0.85628   0.78401 
C          C       0.14424   0.87052   0.74618 
C          C       0.13796   0.87863   0.75355 
N          N       0.14251   0.84755   0.78123 
C          C       0.15554   0.85167   0.79987 
C          C       0.16070   0.84180   0.79409 
C          C       0.15175   0.82728   0.79152 
C          C       0.15758   0.81866   0.79561 
O          O       0.19539   0.84426   0.77392 
C          C       0.20348   0.85729   0.68680 
N          N       0.10327   0.87523   0.81634 
C          C       0.11721   0.88124   0.80388 
C          C       0.08188   0.87641   0.82398 
C          C       0.14198   0.92471   0.75675 
C          C       0.15007   0.93910   0.74457 
C          C       0.14403   0.94739   0.76350 
C          C       0.12981   0.94118   0.80061 
C          C       0.12170   0.92681   0.81307 
N          N       0.15273   0.96207   0.75063 
C          C       0.14859   0.97066   0.70736 
C          C       0.15820   0.98574   0.70768 
C          C       0.17272   0.99150   0.70901 
C          C       0.18045   0.67168   0.71560 
N          N       0.12501   0.89519   0.79550 
C          C       0.11904   0.90317   0.80082 
C          C       0.12383   0.87262   0.79622 
C          C       0.07537   0.88436   0.80458 
C          C       0.06096   0.87791   0.79540 
C          C       0.05286   0.86351   0.80342 
C          C       0.05926   0.85553   0.82962 
C          C       0.07366   0.86194   0.83953 
N          N       0.03819   0.85738   0.78641 
C          C       0.02996   0.84500   0.72702 
C          C       0.01487   0.83934   0.72140 
C          C       0.00896   0.84797   0.72041 
C          C       0.32644   0.84155   0.71965 
N          N       0.22777   0.76915   0.81256 
C          C       0.23568   0.78312   0.81795 
C          C       0.20521   0.74777   0.79081 
C          C       0.21671   0.80787   0.81755 
C          C       0.21031   0.81589   0.81093 
C          C       0.19618   0.80975   0.77522 
C          C       0.18845   0.79547   0.74054 
C          C       0.19479   0.78741   0.74765 
N          N       0.19015   0.81843   0.77330 
C          C       0.17714   0.81432   0.79528 
C          C       0.17198   0.82418   0.79119 
C          C       0.18091   0.83869   0.78239 
C          C       0.17510   0.84732   0.78970 
O          O       0.13726   0.82170   0.79324 
C          C       0.12890   0.80870   0.70643 
N          N       0.22956   0.79095   0.81070 
C          C       0.21560   0.78493   0.79742 
C          C       0.25095   0.78981   0.82211 
C          C       0.19097   0.74144   0.75260 
C          C       0.18292   0.72705   0.74179 
C          C       0.18892   0.71879   0.76700 
C          C       0.20308   0.72503   0.80818 
C          C       0.21116   0.73941   0.81926 
N          N       0.18022   0.70410   0.75582 
C          C       0.18437   0.69546   0.71680 
C          C       0.17472   0.68039   0.71735 
C          C       0.16018   0.67465   0.72110 
C          C       0.15243   0.99441   0.70907 
N          N       0.20783   0.77097   0.79149 
C          C       0.21380   0.76301   0.79974 
C          C       0.20897   0.79352   0.78748 
C          C       0.25748   0.78188   0.80275 
C          C       0.27190   0.78836   0.79435 
C          C       0.27998   0.80276   0.80367 
C          C       0.27354   0.81070   0.82979 
C          C       0.25914   0.80428   0.83824 
N          N       0.29466   0.80894   0.78813 
C          C       0.30289   0.82135   0.72965 
C          C       0.31800   0.82709   0.72508 
C          C       0.32401   0.81855   0.72695 
C          C       0.00635   0.82489   0.71904 
N          N       0.43763   0.89819   0.73170 
C          C       0.42983   0.88426   0.74172 
C          C       0.46015   0.91977   0.72566 
C          C       0.44920   0.86002   0.79257 
C          C       0.45573   0.85213   0.80305 
C          C       0.46998   0.85827   0.77614 
C          C       0.47772   0.87243   0.73428 
C          C       0.47124   0.88036   0.72415 
N          N       0.47606   0.84964   0.78738 
C          C       0.48905   0.85379   0.81194 
C          C       0.49417   0.84388   0.81479 
C          C       0.48518   0.82940   0.82592 
C          C       0.49093   0.82071   0.83032 
O          O       0.52866   0.84589   0.78160 
C          C       0.53683   0.85900   0.69650 
N          N       0.43610   0.87653   0.74872 
C          C       0.45010   0.88271   0.74404 
C          C       0.41454   0.87743   0.74542 
C          C       0.47465   0.92633   0.70910 
C          C       0.48271   0.94076   0.71698 
C          C       0.47653   0.94883   0.74389 
C          C       0.46201   0.94238   0.75428 
C          C       0.45392   0.92797   0.74590 
N          N       0.48536   0.96352   0.75919 
C          C       0.48199   0.97208   0.82745 
C          C       0.49192   0.98706   0.83054 
C          C       0.50637   0.99237   0.82738 
C          C       0.51423   0.67310   0.72654 
O          O       0.48808   0.68456   0.71998 
N          N       0.45778   0.89664   0.73330 
C          C       0.45164   0.90450   0.72772 
C          C       0.45690   0.87424   0.75359 
C          C       0.40785   0.88498   0.70732 
C          C       0.39340   0.87842   0.70732 
C          C       0.38545   0.86428   0.74362 
C          C       0.39208   0.85675   0.78610 
C          C       0.40651   0.86328   0.78619 
N          N       0.37069   0.85801   0.74029 
C          C       0.36211   0.84498   0.71250 
C          C       0.34697   0.83929   0.71731 
C          C       0.34095   0.84783   0.71735 
C          C       0.66051   0.84205   0.80408 
O          O       0.64736   0.80407   0.81777 
C          C       0.65155   0.79522   0.73451 
N          N       0.56043   0.77074   0.75938 
C          C       0.56829   0.78469   0.75595 
C          C       0.53798   0.74923   0.75143 
C          C       0.54925   0.80931   0.72009 
C          C       0.54279   0.81729   0.72303 
C          C       0.52841   0.81096   0.73624 
C          C       0.52037   0.79643   0.73817 
C          C       0.52678   0.78842   0.73470 
N          N       0.52244   0.81967   0.74682 
C          C       0.51036   0.81620   0.81153 
C          C       0.50526   0.82609   0.81332 
C          C       0.51423   0.84054   0.79600 
C          C       0.50853   0.84928   0.80151 
O          O       0.47076   0.82394   0.84020 
C          C       0.46193   0.81084   0.75791 
N          N       0.56207   0.79245   0.74363 
C          C       0.54809   0.78629   0.73486 
C          C       0.58355   0.79143   0.76591 
C          C       0.52378   0.74258   0.71008 
C          C       0.51589   0.72815   0.70850 
C          C       0.52201   0.72016   0.74696 
C          C       0.53611   0.72675   0.79231 
C          C       0.54403   0.74116   0.79362 
N          N       0.51349   0.70543   0.74367 
C          C       0.51790   0.69677   0.72076 
C          C       0.50835   0.68167   0.72494 
C          C       0.49379   0.67579   0.72719 
C          C       0.48666   0.99615   0.83386 
O          O       0.51174   0.98334   0.83582 
C          C       0.52294   0.98609   0.71904 
N          N       0.54036   0.77233   0.73747 
C          C       0.54646   0.76447   0.74962 
C          C       0.54131   0.79479   0.72824 
C          C       0.58993   0.78351   0.79968 
C          C       0.60434   0.78986   0.80692 
C          C       0.61259   0.80412   0.78226 
C          C       0.60629   0.81208   0.74676 
C          C       0.59187   0.80578   0.73984 
N          N       0.62728   0.80995   0.78855 
C          C       0.63636   0.82289   0.81220 
C          C       0.65134   0.82771   0.81040 
C          C       0.65658   0.81849   0.81125 
C          C       0.33852   0.82483   0.72226 
N          N       0.77104   0.89544   0.75424 
C          C       0.76325   0.88150   0.75157 
C          C       0.79351   0.91703   0.74517 
C          C       0.78266   0.85710   0.72546 
C          C       0.78935   0.84933   0.73019 
C          C       0.80378   0.85592   0.73325 
C          C       0.81161   0.87043   0.72345 
C          C       0.80498   0.87822   0.71873 
N          N       0.81008   0.84749   0.74543 
C          C       0.82247   0.85154   0.80304 
C          C       0.82799   0.84200   0.80601 
C          C       0.81926   0.82748   0.80431 
C          C       0.82527   0.81905   0.81184 
O          O       0.86299   0.84512   0.80122 
C          C       0.87106   0.85814   0.71353 
N          N       0.76952   0.87377   0.73872 
C          C       0.78351   0.88002   0.72857 
C          C       0.74799   0.87468   0.76268 
C          C       0.80784   0.92363   0.71228 
C          C       0.81581   0.93805   0.71272 
C          C       0.80967   0.94610   0.74460 
C          C       0.79540   0.93957   0.78093 
C          C       0.78739   0.92516   0.78021 
N          N       0.81831   0.96082   0.74215 
C          C       0.81412   0.96965   0.71792 
C          C       0.82391   0.98471   0.72013 
C          C       0.83842   0.99035   0.71920 
C          C       0.84776   0.67245   0.70227 
N          N       0.79115   0.89396   0.73039 
C          C       0.78502   0.90179   0.74313 
C          C       0.79043   0.87164   0.72232 
C          C       0.74161   0.88250   0.80266 
C          C       0.72720   0.87614   0.81055 
C          C       0.71896   0.86195   0.78036 
C          C       0.72525   0.85408   0.73874 
C          C       0.73967   0.86041   0.73125 
N          N       0.70426   0.85612   0.78720 
C          C       0.69516   0.84314   0.80624 
C          C       0.68017   0.83832   0.80671 
C          C       0.67491   0.84752   0.79732 
C          C       0.99446   0.84178   0.71946 
N          N       0.89567   0.76991   0.81053 
C          C       0.90362   0.78387   0.81700 
C          C       0.87302   0.74860   0.78906 
C          C       0.88469   0.80871   0.82815 
C          C       0.87829   0.81674   0.82439 
C          C       0.86418   0.81067   0.78716 
C          C       0.85649   0.79646   0.74762 
C          C       0.86283   0.78839   0.75195 
N          N       0.85810   0.81932   0.78859 
C          C       0.84508   0.81508   0.81331 
C          C       0.83971   0.82477   0.81023 
C          C       0.84847   0.83932   0.80394 
C          C       0.84242   0.84777   0.80778 
O          O       0.80475   0.82166   0.80773 
C          C       0.79662   0.80892   0.71444 
N          N       0.89756   0.79177   0.81231 
C          C       0.88359   0.78579   0.80047 
C          C       0.91889   0.79048   0.82015 
C          C       0.85876   0.74236   0.75309 
C          C       0.85065   0.72799   0.73992 
C          C       0.85659   0.71965   0.76046 
C          C       0.87076   0.72577   0.80057 
C          C       0.87891   0.74014   0.81410 
N          N       0.84785   0.70499   0.74596 
C          C       0.85193   0.69632   0.70396 
C          C       0.84217   0.68127   0.70231 
C          C       0.82766   0.67567   0.70371 
C          C       0.81828   0.99350   0.72259 
N          N       0.87578   0.77184   0.79329 
C          C       0.88169   0.76383   0.79913 
C          C       0.87698   0.79442   0.79344 
C          C       0.92533   0.78246   0.79929 
C          C       0.93974   0.78884   0.79036 
C          C       0.94790   0.80323   0.80036 
C          C       0.94158   0.81126   0.82798 
C          C       0.92718   0.80493   0.83737 
N          N       0.96258   0.80930   0.78394 
C          C       0.97086   0.82170   0.72574 
C          C       0.98594   0.82733   0.72088 
C          C       0.99185   0.81870   0.71958 
C          C       0.67099   0.82398   0.81360 
O          O       0.68410   0.86194   0.78740 
C          C       0.67948   0.87027   0.69948 
C          C       0.16105   0.17576   0.79108 
C          C       0.15214   0.16123   0.78793 
C          C       0.15801   0.15265   0.79324 
O          O       0.19580   0.17834   0.77499 
C          C       0.20392   0.19137   0.68794 
C          C       0.17242   0.15821   0.79042 
C          C       0.18132   0.17272   0.78206 
C          C       0.17546   0.18132   0.78815 
O          O       0.13764   0.15561   0.78718 
C          C       0.12937   0.14255   0.70118 
H          H       0.10536   0.18705   0.86436 
H          H       0.11686   0.17302   0.85408 
H          H       0.15510   0.20921   0.70550 
H          H       0.14404   0.22326   0.72000 
H          H       0.16325   0.19645   0.81712 
H          H       0.14652   0.25199   0.72388 
H          H       0.16070   0.27738   0.70447 
H          H       0.12516   0.28099   0.84015 
H          H       0.11089   0.25580   0.85760 
H          H       0.13777   0.30070   0.68955 
H          H       0.19230   0.01068   0.70458 
H          H       0.08130   0.22891   0.78065 
H          H       0.05584   0.21735   0.76462 
H          H       0.05314   0.17785   0.84223 
H          H       0.07835   0.18910   0.85591 
H          H       0.03379   0.17156   0.68639 
H          H       0.32258   0.18157   0.71783 
H          H       0.22812   0.14692   0.86611 
H          H       0.21663   0.16094   0.85499 
H          H       0.17840   0.12474   0.70605 
H          H       0.18943   0.11069   0.72179 
H          H       0.17022   0.13752   0.81587 
H          H       0.18668   0.08187   0.73944 
H          H       0.17255   0.05648   0.71877 
H          H       0.20861   0.05304   0.82513 
H          H       0.22282   0.07821   0.84379 
H          H       0.19576   0.03348   0.67498 
H          H       0.14157   0.32361   0.71294 
H          H       0.25205   0.10484   0.79667 
H          H       0.27750   0.11625   0.78126 
H          H       0.28042   0.15601   0.83876 
H          H       0.25520   0.14489   0.85186 
H          H       0.29972   0.16184   0.68324 
H          H       0.01113   0.15177   0.71723 
H          H       0.43804   0.18602   0.85976 
H          H       0.44939   0.17186   0.85659 
H          H       0.48832   0.20812   0.73301 
H          H       0.47736   0.22231   0.73913 
H          H       0.49577   0.19500   0.85880 
H          H       0.48434   0.14027   0.79690 
H          H       0.53164   0.19122   0.62851 
H          H       0.54629   0.18968   0.69137 
H          H       0.54062   0.19883   0.83435 
H          H       0.47981   0.25112   0.73150 
H          H       0.49392   0.27647   0.70739 
H          H       0.45811   0.28009   0.82501 
H          H       0.44389   0.25493   0.84705 
H          H       0.47080   0.29959   0.67092 
H          H       0.46863   0.00928   0.83119 
H          H       0.47665   0.00974   0.62062 
H          H       0.47720   0.02503   0.70430 
H          H       0.41464   0.22841   0.78346 
H          H       0.38922   0.21716   0.76748 
H          H       0.38595   0.17734   0.83651 
H          H       0.41117   0.18831   0.85052 
H          H       0.36668   0.17147   0.67968 
H          H       0.65783   0.18313   0.82541 
H          H       0.65815   0.13379   0.61657 
H          H       0.64441   0.11923   0.72848 
H          H       0.66116   0.12851   0.83077 
H          H       0.56196   0.14790   0.68890 
H          H       0.54990   0.16127   0.71900 
H          H       0.51063   0.12343   0.70372 
H          H       0.52236   0.11005   0.67766 
H          H       0.50409   0.13679   0.83760 
H          H       0.51486   0.19104   0.85047 
H          H       0.46071   0.13260   0.79365 
H          H       0.46745   0.14096   0.58176 
H          H       0.45216   0.14004   0.67190 
H          H       0.52116   0.08155   0.64193 
H          H       0.50752   0.05617   0.67541 
H          H       0.54499   0.05509   0.77408 
H          H       0.55857   0.08015   0.74306 
H          H       0.53033   0.03451   0.87370 
H          H       0.47448   0.32250   0.69695 
H          H       0.58710   0.10691   0.66168 
H          H       0.61248   0.11861   0.69249 
H          H       0.61405   0.15776   0.75106 
H          H       0.58892   0.14631   0.72324 
H          H       0.63432   0.16345   0.86879 
H          H       0.34387   0.15183   0.71429 
H          H       0.77280   0.18607   0.71042 
H          H       0.78448   0.17223   0.71847 
H          H       0.82411   0.20969   0.72698 
H          H       0.81278   0.22351   0.72356 
H          H       0.82978   0.19541   0.85567 
H          H       0.81888   0.14120   0.81717 
H          H       0.86659   0.19154   0.58980 
H          H       0.88180   0.19230   0.68090 
H          H       0.87328   0.19982   0.80191 
H          H       0.81439   0.25196   0.67740 
H          H       0.82838   0.27742   0.67985 
H          H       0.79240   0.27981   0.82942 
H          H       0.77834   0.25460   0.82456 
H          H       0.80480   0.30007   0.69164 
H          H       0.85809   0.00940   0.70863 
H          H       0.74935   0.22826   0.80069 
H          H       0.72391   0.21693   0.81812 
H          H       0.72075   0.17733   0.72961 
H          H       0.74593   0.18835   0.71487 
H          H       0.70032   0.17041   0.85480 
H          H       0.98919   0.18092   0.72159 
H          H       0.89551   0.14617   0.85472 
H          H       0.88424   0.16041   0.84874 
H          H       0.84544   0.12431   0.71600 
H          H       0.85628   0.11004   0.72581 
H          H       0.83787   0.13726   0.84027 
H          H       0.84962   0.19212   0.81346 
H          H       0.79527   0.13356   0.80485 
H          H       0.80171   0.14176   0.59177 
H          H       0.78664   0.14107   0.68644 
H          H       0.85376   0.08128   0.71226 
H          H       0.83934   0.05590   0.69322 
H          H       0.87449   0.05182   0.83575 
H          H       0.88900   0.07699   0.85269 
H          H       0.86186   0.03225   0.68097 
H          H       0.80813   0.32263   0.72356 
H          H       0.91885   0.10385   0.76482 
H          H       0.94432   0.11530   0.74959 
H          H       0.94728   0.15467   0.85010 
H          H       0.92208   0.14354   0.86350 
H          H       0.96656   0.16124   0.69100 
H          H       0.67709   0.15160   0.83887 
H          H       0.67466   0.20712   0.81259 
H          H       0.67521   0.19950   0.60269 
H          H       0.69033   0.21456   0.68361 
H          H       0.10473   0.51854   0.71869 
H          H       0.11645   0.50475   0.73547 
H          H       0.15605   0.54222   0.72675 
H          H       0.14471   0.55601   0.71438 
H          H       0.16170   0.52838   0.87000 
H          H       0.15172   0.47439   0.83699 
H          H       0.19818   0.52531   0.61422 
H          H       0.21329   0.52457   0.67521 
H          H       0.20728   0.53346   0.81775 
H          H       0.14653   0.58443   0.68526 
H          H       0.16055   0.60986   0.68868 
H          H       0.12409   0.61237   0.80629 
H          H       0.11001   0.58720   0.79949 
H          H       0.13704   0.63280   0.67928 
H          H       0.19251   0.34417   0.71618 
H          H       0.08136   0.56061   0.81215 
H          H       0.05592   0.54931   0.82859 
H          H       0.05262   0.51009   0.70566 
H          H       0.07780   0.52107   0.69222 
H          H       0.03228   0.50280   0.83560 
H          H       0.32433   0.51616   0.80744 
H          H       0.32491   0.46689   0.60962 
H          H       0.31153   0.45238   0.72624 
H          H       0.32845   0.46200   0.82320 
H          H       0.22886   0.48127   0.72026 
H          H       0.21712   0.49505   0.73559 
H          H       0.17754   0.45757   0.72367 
H          H       0.18890   0.44380   0.71237 
H          H       0.17178   0.47136   0.86602 
H          H       0.18183   0.52542   0.83339 
H          H       0.12650   0.46633   0.82593 
H          H       0.13503   0.47450   0.61969 
H          H       0.11993   0.47499   0.68868 
H          H       0.18712   0.41548   0.68459 
H          H       0.17302   0.39008   0.68614 
H          H       0.20929   0.38731   0.80619 
H          H       0.22348   0.41250   0.80200 
H          H       0.19626   0.36688   0.67836 
H          H       0.14059   0.65543   0.71798 
H          H       0.25231   0.43940   0.82486 
H          H       0.27778   0.45083   0.84245 
H          H       0.28089   0.48978   0.70728 
H          H       0.25572   0.47869   0.69331 
H          H       0.30127   0.49737   0.83595 
H          H       0.00914   0.48407   0.82754 
H          H       0.00596   0.53897   0.79851 
H          H       0.00724   0.53199   0.58703 
H          H       0.02191   0.54712   0.67563 
H          H       0.43967   0.52003   0.70321 
H          H       0.45137   0.50622   0.71144 
H          H       0.49094   0.54369   0.73301 
H          H       0.47958   0.55748   0.72963 
H          H       0.49668   0.52929   0.85455 
H          H       0.48515   0.47486   0.82021 
H          H       0.53319   0.52483   0.58908 
H          H       0.54829   0.52535   0.67967 
H          H       0.54006   0.53317   0.80055 
H          H       0.48110   0.58599   0.68138 
H          H       0.49490   0.61146   0.68307 
H          H       0.45856   0.61351   0.82380 
H          H       0.44470   0.58830   0.81938 
H          H       0.47099   0.63390   0.69077 
H          H       0.52544   0.34317   0.70109 
H          H       0.41602   0.56177   0.81643 
H          H       0.39056   0.55036   0.82999 
H          H       0.38753   0.51125   0.70801 
H          H       0.41273   0.52233   0.69704 
H          H       0.36714   0.50390   0.83836 
H          H       0.65548   0.51447   0.71555 
H          H       0.56179   0.47963   0.85212 
H          H       0.55047   0.49380   0.84538 
H          H       0.51157   0.45751   0.72093 
H          H       0.52250   0.44330   0.73129 
H          H       0.50406   0.47068   0.84170 
H          H       0.51636   0.52571   0.81256 
H          H       0.46096   0.46747   0.80661 
H          H       0.46852   0.47555   0.59618 
H          H       0.45350   0.47568   0.67761 
H          H       0.52001   0.41450   0.73250 
H          H       0.50589   0.38914   0.71018 
H          H       0.54176   0.38558   0.82551 
H          H       0.55599   0.41074   0.84558 
H          H       0.52909   0.36609   0.67212 
H          H       0.47432   0.65650   0.72214 
H          H       0.58535   0.43747   0.78274 
H          H       0.61081   0.44895   0.76734 
H          H       0.61364   0.48851   0.84546 
H          H       0.58842   0.47732   0.85894 
H          H       0.63277   0.49459   0.68324 
H          H       0.34405   0.48507   0.83079 
H          H       0.34042   0.53965   0.79344 
H          H       0.34169   0.53273   0.58143 
H          H       0.35629   0.54796   0.66936 
H          H       0.77105   0.52000   0.85471 
H          H       0.78240   0.50584   0.84774 
H          H       0.82117   0.54208   0.71751 
H          H       0.81023   0.55628   0.72809 
H          H       0.82873   0.52915   0.84564 
H          H       0.81716   0.47437   0.81759 
H          H       0.86439   0.52488   0.59226 
H          H       0.87960   0.52496   0.67014 
H          H       0.87210   0.53298   0.80227 
H          H       0.81285   0.58505   0.73430 
H          H       0.82708   0.61040   0.71206 
H          H       0.79130   0.61418   0.82559 
H          H       0.77696   0.58901   0.84569 
H          H       0.80413   0.63367   0.67217 
H          H       0.85918   0.34408   0.72249 
H          H       0.74752   0.56224   0.78470 
H          H       0.72206   0.55077   0.76916 
H          H       0.71918   0.51120   0.84674 
H          H       0.74440   0.52237   0.86040 
H          H       0.70009   0.50516   0.68380 
H          H       0.98971   0.51544   0.81476 
H          H       0.99009   0.46607   0.60842 
H          H       0.97656   0.45153   0.72297 
H          H       0.99340   0.46102   0.82230 
H          H       0.89402   0.48061   0.70579 
H          H       0.88228   0.49439   0.71358 
H          H       0.84271   0.45688   0.72213 
H          H       0.85410   0.44311   0.71889 
H          H       0.83703   0.47108   0.85304 
H          H       0.84785   0.52530   0.81803 
H          H       0.79345   0.46662   0.80852 
H          H       0.79993   0.47499   0.59642 
H          H       0.78483   0.47420   0.69142 
H          H       0.85251   0.41463   0.68182 
H          H       0.83865   0.38916   0.68447 
H          H       0.87494   0.38703   0.82520 
H          H       0.88886   0.41223   0.82019 
H          H       0.86248   0.36667   0.69156 
H          H       0.80794   0.65663   0.69958 
H          H       0.91757   0.43875   0.81683 
H          H       0.94302   0.45014   0.83302 
H          H       0.94614   0.48934   0.71479 
H          H       0.92096   0.47828   0.70170 
H          H       0.96656   0.49666   0.84309 
H          H       0.67739   0.48528   0.71696 
H          H       0.10524   0.85344   0.86439 
H          H       0.11657   0.83928   0.85261 
H          H       0.15502   0.87540   0.70857 
H          H       0.14412   0.88960   0.72462 
H          H       0.16294   0.86248   0.82354 
H          H       0.15088   0.80756   0.80319 
H          H       0.19834   0.85782   0.56380 
H          H       0.21364   0.85846   0.64939 
H          H       0.20540   0.86601   0.77544 
H          H       0.14688   0.91849   0.73888 
H          H       0.16105   0.94388   0.71798 
H          H       0.12501   0.94739   0.82355 
H          H       0.11077   0.92223   0.84214 
H          H       0.13786   0.96691   0.67285 
H          H       0.19158   0.67633   0.71104 
H          H       0.08146   0.89553   0.79266 
H          H       0.05601   0.88405   0.77692 
H          H       0.05319   0.84440   0.84355 
H          H       0.07841   0.85559   0.85770 
H          H       0.03401   0.83846   0.68365 
H          H       0.32154   0.84780   0.71545 
H          H       0.22765   0.81284   0.84854 
H          H       0.21621   0.82691   0.83698 
H          H       0.17760   0.79051   0.70588 
H          H       0.18861   0.77641   0.72116 
H          H       0.16981   0.80353   0.82167 
H          H       0.18180   0.85843   0.79265 
H          H       0.12731   0.79993   0.79177 
H          H       0.13361   0.80827   0.57925 
H          H       0.11860   0.80751   0.67697 
H          H       0.18612   0.74764   0.72955 
H          H       0.17200   0.72222   0.71113 
H          H       0.20785   0.71884   0.83522 
H          H       0.22204   0.74402   0.85154 
H          H       0.19514   0.69918   0.68453 
H          H       0.14130   0.98969   0.70684 
H          H       0.25141   0.77071   0.79008 
H          H       0.27688   0.78224   0.77557 
H          H       0.27958   0.82182   0.84478 
H          H       0.25436   0.81061   0.85580 
H          H       0.29880   0.82783   0.68537 
H          H       0.01122   0.81861   0.71615 
H          H       0.43815   0.85505   0.81657 
H          H       0.44979   0.84120   0.83410 
H          H       0.48867   0.87738   0.70598 
H          H       0.47738   0.89126   0.69171 
H          H       0.49647   0.86468   0.82937 
H          H       0.48425   0.80967   0.84584 
H          H       0.53185   0.85949   0.57197 
H          H       0.54708   0.86025   0.66253 
H          H       0.53854   0.86765   0.78503 
H          H       0.47973   0.92029   0.69217 
H          H       0.49387   0.94576   0.70595 
H          H       0.45684   0.94832   0.76818 
H          H       0.44277   0.92322   0.75800 
H          H       0.47171   0.96848   0.88008 
H          H       0.52536   0.67789   0.72374 
H          H       0.41379   0.89591   0.67542 
H          H       0.38831   0.88425   0.67590 
H          H       0.38620   0.84594   0.82221 
H          H       0.41143   0.85730   0.81961 
H          H       0.36592   0.83795   0.68496 
H          H       0.65633   0.84896   0.80415 
H          H       0.65593   0.79919   0.60195 
H          H       0.64233   0.78478   0.71757 
H          H       0.65922   0.79411   0.81577 
H          H       0.56045   0.81450   0.71393 
H          H       0.54893   0.82848   0.71940 
H          H       0.50919   0.79123   0.74149 
H          H       0.52038   0.77725   0.73950 
H          H       0.50376   0.80593   0.86470 
H          H       0.51524   0.86037   0.79470 
H          H       0.46105   0.80215   0.83919 
H          H       0.46579   0.81043   0.62450 
H          H       0.45141   0.80948   0.74288 
H          H       0.51886   0.74857   0.67697 
H          H       0.50502   0.72308   0.67450 
H          H       0.54098   0.72084   0.82994 
H          H       0.55488   0.74603   0.82926 
H          H       0.52877   0.70049   0.69663 
H          H       0.52549   0.99471   0.62485 
H          H       0.51997   0.97663   0.63886 
H          H       0.53225   0.98851   0.79874 
H          H       0.58378   0.77244   0.82087 
H          H       0.60924   0.78375   0.83304 
H          H       0.61237   0.82306   0.72063 
H          H       0.58721   0.81208   0.71166 
H          H       0.63313   0.83045   0.83353 
H          H       0.34344   0.81861   0.71976 
H          H       0.77145   0.85175   0.72732 
H          H       0.78337   0.83814   0.73592 
H          H       0.82279   0.87581   0.71860 
H          H       0.81125   0.88941   0.71447 
H          H       0.82908   0.86206   0.84853 
H          H       0.81866   0.80793   0.81948 
H          H       0.86600   0.85858   0.58939 
H          H       0.88128   0.85936   0.67797 
H          H       0.87284   0.86686   0.80116 
H          H       0.81283   0.91762   0.68472 
H          H       0.82679   0.94304   0.68553 
H          H       0.79045   0.94551   0.81280 
H          H       0.77642   0.92033   0.80844 
H          H       0.80330   0.96612   0.69326 
H          H       0.85887   0.67703   0.69955 
H          H       0.74777   0.89351   0.82845 
H          H       0.72232   0.88218   0.84154 
H          H       0.71916   0.84317   0.70824 
H          H       0.74435   0.85419   0.69816 
H          H       0.69840   0.83555   0.82430 
H          H       0.98959   0.84805   0.71694 
H          H       0.89558   0.81360   0.86099 
H          H       0.88416   0.82770   0.85415 
H          H       0.84568   0.79157   0.71141 
H          H       0.85667   0.77744   0.72215 
H          H       0.83786   0.80425   0.83918 
H          H       0.84895   0.85890   0.81091 
H          H       0.79381   0.79996   0.80302 
H          H       0.80211   0.80818   0.59605 
H          H       0.78695   0.80844   0.66766 
H          H       0.85392   0.74861   0.73362 
H          H       0.83970   0.72327   0.71108 
H          H       0.87548   0.71951   0.82490 
H          H       0.88980   0.74467   0.84549 
H          H       0.86268   0.70000   0.67206 
H          H       0.80716   0.98885   0.72292 
H          H       0.91918   0.77131   0.78605 
H          H       0.94462   0.78266   0.77067 
H          H       0.94770   0.82237   0.84352 
H          H       0.92248   0.81131   0.85670 
H          H       0.96684   0.82828   0.68303 
H          H       0.67518   0.81710   0.82153 
H          H       0.67285   0.87246   0.78753 
H          H       0.67379   0.86520   0.57648 
H          H       0.68867   0.88029   0.66196 
H          H       0.15135   0.14155   0.80071 
H          H       0.19889   0.19182   0.56354 
H          H       0.21415   0.19261   0.65313 
H          H       0.20568   0.20010   0.77548 
H          H       0.18213   0.19243   0.79151 
H          H       0.12786   0.13384   0.78729 
H          H       0.13414   0.14213   0.57442 
H          H       0.11904   0.14124   0.67112 
O          O       0.51160   0.64983   0.71923 
O          O       0.17749   0.64831   0.70559 
O          O       0.51127   0.31509   0.69797 
O          O       0.17834   0.31607   0.71666 
O          O       0.84545   0.31602   0.71953 
O          O       0.17830   0.98261   0.70099 
O          O       0.34959   0.86229   0.70470 
N          N       0.54336   0.64587   0.76117 
Br         Br      0.55540   0.61039   0.97009 
C          C       0.52523   0.65464   0.78693 
C          C       0.52787   0.64223   0.78938 
C          C       0.54371   0.64580   0.58764 
C          C       0.54690   0.63408   0.79285 
C          C       0.55530   0.66106   0.79279 
H          H       0.54052   0.65311   0.54310 
H          H       0.53637   0.63517   0.54524 
H          H       0.55447   0.64881   0.54766 
H          H       0.54971   0.62964   0.67680 
H          H       0.53788   0.62431   0.84192 
H          H       0.55672   0.63721   0.86522 
H          H       0.55941   0.66822   0.67574 
H          H       0.56485   0.66134   0.83988 
H          H       0.55269   0.66767   0.87477 
H          H       0.53299   0.66330   0.70583 
H          H       0.52585   0.65863   0.92215 
H          H       0.52042   0.63456   0.69267 
H          H       0.52207   0.63580   0.90242 
C          C       0.45602   0.68866   0.58927 
C          C       0.45293   0.70045   0.79438 
C          C       0.44438   0.67343   0.79445 
H          H       0.45916   0.68131   0.54476 
H          H       0.46339   0.69928   0.54682 
H          H       0.44527   0.68570   0.54927 
H          H       0.45016   0.70495   0.67824 
H          H       0.46202   0.71018   0.84305 
H          H       0.44315   0.69742   0.86741 
H          H       0.44024   0.66626   0.67744 
H          H       0.43485   0.67320   0.84155 
H          H       0.44696   0.66679   0.87626 
H          H       0.46667   0.67109   0.70689 
H          H       0.47384   0.67573   0.92310 
H          H       0.47930   0.69987   0.69481 
H          H       0.47765   0.69854   0.90443 
Br         Br      0.44850   0.72714   0.95432 
N          N       0.45636   0.68860   0.76281 
C          C       0.47445   0.67974   0.78797 
C          C       0.47184   0.69216   0.79106 
O          O       0.82226   0.68470   0.69646 
O          O       0.84455   0.64896   0.69657 
C          C       0.87595   0.64399   0.57021 
C          C       0.87892   0.63208   0.77546 
C          C       0.88789   0.65914   0.77519 
H          H       0.87307   0.65154   0.52557 
H          H       0.86839   0.63340   0.52822 
H          H       0.88660   0.64671   0.52984 
H          H       0.88129   0.62732   0.65875 
H          H       0.86986   0.62249   0.82725 
H          H       0.88879   0.63514   0.84591 
H          H       0.89222   0.66625   0.65790 
H          H       0.89729   0.65912   0.82298 
H          H       0.88549   0.66594   0.85655 
H          H       0.86601   0.66205   0.68746 
H          H       0.85859   0.65748   0.90236 
H          H       0.85270   0.63310   0.67720 
H          H       0.85442   0.63464   0.88628 
C          C       0.79086   0.68969   0.57062 
C          C       0.78791   0.70160   0.77586 
C          C       0.77891   0.67454   0.77558 
H          H       0.79373   0.68213   0.52599 
H          H       0.79845   0.70026   0.52870 
H          H       0.78022   0.68699   0.53019 
H          H       0.78568   0.70646   0.65900 
H          H       0.79693   0.71117   0.82893 
H          H       0.77798   0.69850   0.84520 
H          H       0.77458   0.66743   0.65829 
H          H       0.76952   0.67457   0.82341 
H          H       0.78131   0.66774   0.85690 
H          H       0.80079   0.67160   0.68769 
H          H       0.80822   0.67617   0.90243 
H          H       0.81412   0.70058   0.67793 
H          H       0.81240   0.69899   0.88691 
Br         Br      0.80976   0.73745   0.60466 
N          N       0.79112   0.68960   0.74417 
C          C       0.80878   0.68019   0.76745 
C          C       0.80651   0.69282   0.77259 
Br         Br      0.85913   0.59694   0.58647 
N          N       0.87570   0.64408   0.74376 
C          C       0.85803   0.65347   0.76734 
C          C       0.86031   0.64083   0.77216 
O          O       0.48865   0.35055   0.69460 
C          C       0.54277   0.31031   0.57278 
C          C       0.54578   0.29843   0.77802 
C          C       0.55468   0.32547   0.77779 
H          H       0.53986   0.31784   0.52810 
H          H       0.53524   0.29972   0.53077 
H          H       0.55343   0.31306   0.53245 
H          H       0.54814   0.29366   0.66130 
H          H       0.53674   0.28883   0.82999 
H          H       0.55567   0.30153   0.84831 
H          H       0.55900   0.33259   0.66051 
H          H       0.56409   0.32548   0.82561 
H          H       0.55225   0.33225   0.85901 
H          H       0.53271   0.32829   0.68938 
H          H       0.52528   0.32370   0.90410 
H          H       0.51952   0.29931   0.68012 
H          H       0.52124   0.30093   0.88912 
C          C       0.45722   0.35543   0.56998 
C          C       0.45422   0.36732   0.77521 
C          C       0.44529   0.34027   0.77496 
H          H       0.46012   0.34789   0.52533 
H          H       0.46477   0.36602   0.52800 
H          H       0.44656   0.35269   0.52958 
H          H       0.45190   0.37211   0.65843 
H          H       0.46325   0.37691   0.82759 
H          H       0.44432   0.36422   0.84521 
H          H       0.44098   0.33315   0.65767 
H          H       0.43589   0.34027   0.82276 
H          H       0.44771   0.33348   0.85630 
H          H       0.46719   0.33738   0.68735 
H          H       0.47470   0.34203   0.90162 
H          H       0.48047   0.36639   0.67734 
H          H       0.47875   0.36479   0.88627 
Br         Br      0.47488   0.40274   0.59459 
N          N       0.45747   0.35534   0.74353 
C          C       0.47519   0.34601   0.76658 
C          C       0.47287   0.35861   0.77192 
C          C       0.87763   0.31211   0.58801 
C          C       0.88082   0.30038   0.79311 
C          C       0.88921   0.32737   0.79322 
H          H       0.87443   0.31941   0.54353 
H          H       0.87031   0.30148   0.54555 
H          H       0.88840   0.31513   0.54802 
H          H       0.88364   0.29593   0.67698 
H          H       0.87177   0.29062   0.84176 
H          H       0.89060   0.30346   0.86632 
H          H       0.89331   0.33454   0.67622 
H          H       0.89877   0.32766   0.84023 
H          H       0.88658   0.33397   0.87509 
H          H       0.86684   0.32954   0.70605 
H          H       0.85970   0.32487   0.92236 
H          H       0.85435   0.30081   0.69321 
H          H       0.85599   0.30208   0.90287 
C          C       0.78972   0.35464   0.59073 
C          C       0.78657   0.36639   0.79583 
C          C       0.77813   0.33938   0.79592 
H          H       0.79291   0.34732   0.54620 
H          H       0.79706   0.36526   0.54827 
H          H       0.77896   0.35164   0.55075 
H          H       0.78378   0.37087   0.67968 
H          H       0.79563   0.37614   0.84454 
H          H       0.77679   0.36333   0.86895 
H          H       0.77401   0.33222   0.67888 
H          H       0.76858   0.33910   0.84315 
H          H       0.78076   0.33277   0.87759 
H          H       0.80047   0.33717   0.70846 
H          H       0.80765   0.34184   0.92451 
H          H       0.81301   0.36594   0.69623 
H          H       0.81136   0.36460   0.90587 
Br         Br      0.78227   0.39330   0.94985 
N          N       0.79007   0.35458   0.76426 
C          C       0.80824   0.34583   0.78937 
C          C       0.80556   0.35821   0.79249 
Br         Br      0.88593   0.27399   0.94862 
N          N       0.87729   0.31217   0.76155 
C          C       0.85909   0.32088   0.78717 
C          C       0.86178   0.30851   0.78977 
Br         Br      0.52483   0.26347   0.58582 
N          N       0.54251   0.31040   0.74633 
C          C       0.52476   0.31969   0.76920 
C          C       0.52711   0.30710   0.77470 
O          O       0.15458   0.68354   0.71607 
C          C       0.20873   0.64313   0.58015 
C          C       0.21156   0.63114   0.78536 
C          C       0.22073   0.65825   0.78523 
H          H       0.20590   0.65072   0.53561 
H          H       0.20116   0.63253   0.53798 
H          H       0.21938   0.64581   0.53995 
H          H       0.21413   0.62651   0.66905 
H          H       0.20234   0.62155   0.83419 
H          H       0.22128   0.63398   0.85832 
H          H       0.22509   0.66536   0.66796 
H          H       0.23009   0.65817   0.83308 
H          H       0.21837   0.66508   0.86657 
H          H       0.19896   0.66138   0.69876 
H          H       0.19142   0.65669   0.91302 
H          H       0.18551   0.63238   0.68668 
H          H       0.18721   0.63382   0.89578 
C          C       0.12227   0.68729   0.58391 
C          C       0.11900   0.69897   0.78899 
C          C       0.11074   0.67201   0.78907 
H          H       0.12551   0.68002   0.53938 
H          H       0.12957   0.69792   0.54153 
H          H       0.11150   0.68422   0.54382 
H          H       0.11628   0.70349   0.67269 
H          H       0.12801   0.70871   0.83852 
H          H       0.10918   0.69581   0.86152 
H          H       0.10670   0.66483   0.67212 
H          H       0.10114   0.67167   0.83577 
H          H       0.11340   0.66544   0.87105 
H          H       0.13319   0.67002   0.70123 
H          H       0.14026   0.67463   0.91787 
H          H       0.14558   0.69871   0.68945 
H          H       0.14392   0.69737   0.89915 
Br         Br      0.12103   0.73035   0.92438 
N          N       0.12261   0.68723   0.75743 
C          C       0.14091   0.67865   0.78286 
C          C       0.13815   0.69097   0.78570 
C          C       0.21043   0.31195   0.58497 
C          C       0.21353   0.30016   0.79006 
C          C       0.22207   0.32718   0.79014 
H          H       0.20729   0.31929   0.54039 
H          H       0.20305   0.30133   0.54258 
H          H       0.22117   0.31490   0.54492 
H          H       0.21624   0.29561   0.67384 
H          H       0.20445   0.29046   0.83921 
H          H       0.22332   0.30320   0.86293 
H          H       0.22619   0.33435   0.67315 
H          H       0.23161   0.32741   0.83703 
H          H       0.21949   0.33382   0.87195 
H          H       0.19977   0.32945   0.70169 
H          H       0.19270   0.32493   0.91835 
H          H       0.18713   0.30073   0.69065 
H          H       0.18880   0.30210   0.90035 
C          C       0.12464   0.35698   0.57900 
C          C       0.12190   0.36903   0.78417 
C          C       0.11260   0.34189   0.78410 
H          H       0.12742   0.34936   0.53448 
H          H       0.13226   0.36756   0.53681 
H          H       0.11401   0.35436   0.53885 
H          H       0.11942   0.37373   0.66783 
H          H       0.13115   0.37859   0.83306 
H          H       0.11218   0.36623   0.85688 
H          H       0.10820   0.33479   0.66683 
H          H       0.10327   0.34201   0.83219 
H          H       0.11492   0.33503   0.86526 
H          H       0.13434   0.33866   0.69734 
H          H       0.14179   0.34328   0.91209 
H          H       0.14786   0.36763   0.68544 
H          H       0.14617   0.36622   0.89457 
Br         Br      0.13858   0.40330   0.55246 
N          N       0.12491   0.35689   0.75255 
C          C       0.14237   0.34725   0.77680 
C          C       0.14024   0.35998   0.78089 
Br         Br      0.21336   0.27001   0.92863 
N          N       0.21009   0.31201   0.75849 
C          C       0.19200   0.32086   0.78347 
C          C       0.19461   0.30844   0.78675 
Br         Br      0.19516   0.59686   0.56343 
N          N       0.20847   0.64323   0.75370 
C          C       0.19092   0.65275   0.77770 
C          C       0.19312   0.64006   0.78206 
O          O       0.31530   0.80403   0.72170 
C          C       0.31231   0.76828   0.58882 
C          C       0.30083   0.75324   0.79429 
C          C       0.32765   0.77235   0.79394 
H          H       0.31940   0.77883   0.54417 
H          H       0.30167   0.76478   0.54637 
H          H       0.31559   0.76069   0.54895 
H          H       0.29643   0.74606   0.67786 
H          H       0.29097   0.75214   0.84549 
H          H       0.30436   0.74674   0.86413 
H          H       0.33485   0.77557   0.67699 
H          H       0.32819   0.76322   0.84071 
H          H       0.33411   0.78162   0.87600 
H          H       0.32914   0.79654   0.70597 
H          H       0.32445   0.79885   0.92282 
H          H       0.30054   0.77984   0.69341 
H          H       0.30181   0.77948   0.90358 
C          C       0.35368   0.89843   0.57249 
C          C       0.36552   0.91334   0.77749 
C          C       0.33847   0.89489   0.77774 
H          H       0.34630   0.88793   0.52823 
H          H       0.36429   0.90166   0.53001 
H          H       0.35076   0.90624   0.53243 
H          H       0.37011   0.92056   0.66119 
H          H       0.37519   0.91389   0.82627 
H          H       0.36255   0.92010   0.85091 
H          H       0.33131   0.89189   0.66071 
H          H       0.33827   0.90421   0.82494 
H          H       0.33182   0.88566   0.85926 
H          H       0.33609   0.87018   0.69223 
H          H       0.34088   0.86779   0.90837 
H          H       0.36484   0.88632   0.67736 
H          H       0.36371   0.88680   0.88670 
Br         Br      0.39872   0.93966   0.95161 
N          N       0.35363   0.89806   0.74601 
C          C       0.34479   0.87112   0.77276 
C          C       0.35721   0.88615   0.77431 
Br         Br      0.28875   0.71923   0.56032 
N          N       0.31232   0.76869   0.76236 
C          C       0.32043   0.79544   0.78785 
C          C       0.30829   0.78027   0.79038 
O          O       0.68362   0.52900   0.70883 
C          C       0.68702   0.56501   0.57003 
C          C       0.69864   0.58000   0.77540 
C          C       0.67174   0.56114   0.77516 
H          H       0.67983   0.55448   0.52565 
H          H       0.69764   0.56838   0.52759 
H          H       0.68389   0.57270   0.53009 
H          H       0.70312   0.58718   0.65892 
H          H       0.70844   0.58098   0.82672 
H          H       0.69522   0.58659   0.84509 
H          H       0.66455   0.55800   0.65821 
H          H       0.67134   0.57034   0.82188 
H          H       0.66520   0.55190   0.85725 
H          H       0.66993   0.53666   0.68811 
H          H       0.67451   0.53453   0.90639 
H          H       0.69843   0.55310   0.67368 
H          H       0.69742   0.55369   0.88383 
Br         Br      0.71100   0.61415   0.53509 
N          N       0.68701   0.56461   0.74357 
C          C       0.67859   0.53778   0.77135 
C          C       0.69085   0.55289   0.77172 
C          C       0.64599   0.43476   0.57058 
C          C       0.63442   0.41975   0.77596 
C          C       0.66129   0.43870   0.77569 
H          H       0.65314   0.44530   0.52619 
H          H       0.63536   0.43134   0.52814 
H          H       0.64917   0.42711   0.53063 
H          H       0.62999   0.41257   0.65950 
H          H       0.62459   0.41873   0.82708 
H          H       0.63787   0.41319   0.84587 
H          H       0.66848   0.44188   0.65876 
H          H       0.66173   0.42951   0.82226 
H          H       0.66780   0.44794   0.85790 
H          H       0.66298   0.46312   0.68860 
H          H       0.65840   0.46522   0.90699 
H          H       0.63451   0.44661   0.67410 
H          H       0.63550   0.44600   0.88431 
Br         Br      0.62217   0.38558   0.54011 
N          N       0.64600   0.43517   0.74411 
C          C       0.65432   0.46197   0.77200 
C          C       0.64210   0.44684   0.77226 
O          O       0.35073   0.19580   0.70954 
C          C       0.35445   0.23199   0.56915 
C          C       0.36615   0.24694   0.77450 
C          C       0.33921   0.22822   0.77427 
H          H       0.34720   0.22148   0.52478 
H          H       0.36504   0.23526   0.52672 
H          H       0.35141   0.23976   0.52925 
H          H       0.37074   0.25409   0.65791 
H          H       0.37590   0.24785   0.82678 
H          H       0.36275   0.25359   0.84316 
H          H       0.33202   0.22514   0.65732 
H          H       0.33888   0.23746   0.82113 
H          H       0.33261   0.21900   0.85630 
H          H       0.33722   0.20366   0.68722 
H          H       0.34170   0.20152   0.90592 
H          H       0.36566   0.21988   0.67238 
H          H       0.36475   0.22055   0.88262 
Br         Br      0.37590   0.28061   0.54456 
N          N       0.35444   0.23157   0.74266 
C          C       0.34581   0.20470   0.77096 
C          C       0.35816   0.21977   0.77081 
O          O       0.31572   0.13761   0.70939 
C          C       0.31197   0.10143   0.57028 
C          C       0.30025   0.08649   0.77563 
C          C       0.32721   0.10521   0.77542 
H          H       0.31924   0.11194   0.52588 
H          H       0.30140   0.09819   0.52782 
H          H       0.31499   0.09364   0.53044 
H          H       0.29561   0.07936   0.65896 
H          H       0.29052   0.08559   0.82844 
H          H       0.30368   0.07984   0.84377 
H          H       0.33439   0.10824   0.65843 
H          H       0.32754   0.09598   0.82273 
H          H       0.33381   0.11445   0.85705 
H          H       0.32923   0.12975   0.68801 
H          H       0.32474   0.13193   0.90646 
H          H       0.30074   0.11354   0.67378 
H          H       0.30173   0.11293   0.88407 
Br         Br      0.29358   0.05371   0.55877 
N          N       0.31197   0.10185   0.74379 
C          C       0.32063   0.12872   0.77150 
C          C       0.30827   0.11367   0.77190 
O          O       0.15529   0.01779   0.70586 
C          C       0.12325   0.02190   0.57841 
C          C       0.12003   0.03364   0.78358 
C          C       0.11165   0.00667   0.78355 
H          H       0.12641   0.01456   0.53377 
H          H       0.13064   0.03250   0.53609 
H          H       0.11250   0.01893   0.53834 
H          H       0.11763   0.03838   0.66681 
H          H       0.12892   0.04332   0.83639 
H          H       0.11007   0.03035   0.85340 
H          H       0.10751   0.99949   0.66661 
H          H       0.10211   0.00643   0.83068 
H          H       0.11426   0.00003   0.86507 
H          H       0.13387   0.00438   0.69531 
H          H       0.14119   0.00904   0.91060 
H          H       0.14657   0.03323   0.68444 
H          H       0.14489   0.03175   0.89403 
Br         Br      0.13988   0.07320   0.90482 
N          N       0.12359   0.02186   0.75194 
C          C       0.14172   0.01303   0.77559 
C          C       0.13909   0.02545   0.78004 
O          O       0.82134   0.01695   0.71610 
C          C       0.78925   0.02110   0.58417 
C          C       0.78611   0.03284   0.78943 
C          C       0.77764   0.00583   0.78934 
H          H       0.79242   0.01378   0.53951 
H          H       0.79660   0.03173   0.54180 
H          H       0.77848   0.01811   0.54423 
H          H       0.78328   0.03728   0.67349 
H          H       0.79519   0.04260   0.83764 
H          H       0.77635   0.02982   0.86278 
H          H       0.77355   0.99867   0.67229 
H          H       0.76808   0.00557   0.83632 
H          H       0.78024   0.99922   0.87128 
H          H       0.79993   0.00361   0.70120 
H          H       0.80699   0.00815   0.91791 
H          H       0.81254   0.03232   0.68944 
H          H       0.81087   0.03101   0.89926 
Br         Br      0.78156   0.05915   0.97535 
N          N       0.78959   0.02102   0.75771 
C          C       0.80769   0.01221   0.78293 
C          C       0.80508   0.02463   0.78583 
O          O       0.98300   0.13720   0.71119 
C          C       0.97988   0.10127   0.57067 
C          C       0.96833   0.08624   0.77600 
C          C       0.99518   0.10527   0.77581 
H          H       0.98701   0.11182   0.52636 
H          H       0.96927   0.09786   0.52820 
H          H       0.98307   0.09361   0.53077 
H          H       0.96380   0.07909   0.65932 
H          H       0.95852   0.08516   0.82869 
H          H       0.97190   0.07972   0.84429 
H          H       0.00238   0.10845   0.65888 
H          H       0.99567   0.09612   0.82262 
H          H       0.00167   0.11452   0.85787 
H          H       0.99677   0.12964   0.68929 
H          H       0.99218   0.13168   0.90787 
H          H       0.96837   0.11309   0.67374 
H          H       0.96927   0.11242   0.88404 
Br         Br      0.96036   0.05301   0.55535 
N          N       0.97987   0.10168   0.74418 
C          C       0.98811   0.12846   0.77280 
C          C       0.97592   0.11332   0.77234 
O          O       0.98307   0.80422   0.70864 
C          C       0.97952   0.76811   0.56853 
C          C       0.96786   0.75314   0.77389 
C          C       0.99478   0.77194   0.77367 
H          H       0.98675   0.77863   0.52416 
H          H       0.96893   0.76480   0.52610 
H          H       0.98259   0.76037   0.52865 
H          H       0.96329   0.74599   0.65731 
H          H       0.95809   0.75220   0.82607 
H          H       0.97129   0.74652   0.84268 
H          H       0.00197   0.77502   0.65667 
H          H       0.99516   0.76273   0.82083 
H          H       0.00135   0.78119   0.85541 
H          H       0.99667   0.79647   0.68629 
H          H       0.99218   0.79858   0.90499 
H          H       0.96821   0.78013   0.67194 
H          H       0.96917   0.77950   0.88215 
Br         Br      0.95798   0.71943   0.54317 
N          N       0.97953   0.76852   0.74205 
C          C       0.98806   0.79538   0.77007 
C          C       0.97576   0.78029   0.77018 
O          O       0.84389   0.98137   0.71200 
C          C       0.87538   0.97647   0.58691 
C          C       0.87822   0.96449   0.79209 
C          C       0.88723   0.99160   0.79202 
H          H       0.87245   0.98399   0.54226 
H          H       0.86783   0.96592   0.54461 
H          H       0.88606   0.97920   0.54687 
H          H       0.88057   0.95969   0.67556 
H          H       0.86913   0.95492   0.84359 
H          H       0.88807   0.96748   0.86306 
H          H       0.89152   0.99875   0.67495 
H          H       0.89663   0.99161   0.83940 
H          H       0.88482   0.99839   0.87345 
H          H       0.86536   0.99450   0.70415 
H          H       0.85788   0.98987   0.91863 
H          H       0.85209   0.96554   0.69344 
H          H       0.85379   0.96708   0.90284 
Br         Br      0.86559   0.92726   0.88060 
N          N       0.87505   0.97653   0.76043 
C          C       0.85736   0.98589   0.78354 
C          C       0.85966   0.97327   0.78860 
C          C       0.21006   0.97812   0.57377 
C          C       0.21315   0.96629   0.77885 
C          C       0.22182   0.99331   0.77895 
H          H       0.20702   0.98555   0.52926 
H          H       0.20260   0.96752   0.53153 
H          H       0.22077   0.98097   0.53363 
H          H       0.21554   0.96154   0.66219 
H          H       0.20413   0.95667   0.83013 
H          H       0.22304   0.96943   0.84948 
H          H       0.22605   0.00046   0.66187 
H          H       0.23129   0.99343   0.82656 
H          H       0.21930   0.00001   0.86039 
H          H       0.19973   0.99590   0.69181 
H          H       0.19233   0.99120   0.90676 
H          H       0.18678   0.96701   0.68000 
H          H       0.18846   0.96844   0.88931 
Br         Br      0.19515   0.92999   0.99441 
N          N       0.20976   0.97818   0.74730 
C          C       0.19182   0.98725   0.77151 
C          C       0.19431   0.97474   0.77558 
O          O       0.01774   0.86246   0.71014 
C          C       0.02119   0.89851   0.57019 
C          C       0.03280   0.91350   0.77558 
C          C       0.00591   0.89463   0.77529 
H          H       0.01400   0.88798   0.52581 
H          H       0.03180   0.90187   0.52775 
H          H       0.01804   0.90619   0.53023 
H          H       0.03726   0.92067   0.65907 
H          H       0.04260   0.91447   0.82681 
H          H       0.02938   0.92009   0.84537 
H          H       0.99871   0.89147   0.65838 
H          H       0.00551   0.90385   0.82169 
H          H       0.99936   0.88542   0.85761 
H          H       0.00410   0.87017   0.68809 
H          H       0.00862   0.86806   0.90669 
H          H       0.03256   0.88656   0.67364 
H          H       0.03159   0.88719   0.88391 
Br         Br      0.04453   0.94767   0.54900 
N          N       0.02117   0.89810   0.74372 
C          C       0.01273   0.87127   0.77176 
C          C       0.02500   0.88637   0.77188 
O          O       0.01733   0.19548   0.71403 
C          C       0.02046   0.23140   0.57418 
C          C       0.03200   0.24642   0.77955 
C          C       0.00515   0.22740   0.77930 
H          H       0.01333   0.22085   0.52980 
H          H       0.03108   0.23484   0.53173 
H          H       0.01725   0.23904   0.53426 
H          H       0.03646   0.25359   0.66301 
H          H       0.04183   0.24749   0.83130 
H          H       0.02848   0.25295   0.84876 
H          H       0.99795   0.22421   0.66235 
H          H       0.00466   0.23656   0.82603 
H          H       0.99866   0.21815   0.86140 
H          H       0.00356   0.20304   0.69241 
H          H       0.00815   0.20097   0.91095 
H          H       0.03199   0.21960   0.67750 
H          H       0.03104   0.22024   0.88777 
Br         Br      0.04294   0.28036   0.54892 
N          N       0.02045   0.23099   0.74769 
C          C       0.01222   0.20422   0.77592 
C          C       0.02441   0.21936   0.77585 
H          H       0.47557   0.99195   0.83898 
H          H       0.52635   0.01083   0.83789 
