data_crystal
 
_cell_length_a    109.58000
_cell_length_b    109.58000
_cell_length_c    7.04000
_cell_angle_alpha 90.00000
_cell_angle_beta  90.00000
_cell_angle_gamma 120.00000
 
_symmetry_space_group_name_Hall 'P 1'
_symmetry_space_group_name_H-M  'P 1'
 
loop_
_symmetry_equiv_pos_as_xyz
 'x,y,z' 
 
loop_
_atom_site_label
_atom_site_type_symbol
_atom_site_fract_x
_atom_site_fract_y
_atom_site_fract_z
N          N       0.10443   0.22949   0.18593 
C          C       0.09679   0.21551   0.19074 
C          C       0.12667   0.25130   0.18831 
C          C       0.11646   0.19149   0.21275 
C          C       0.12306   0.18371   0.22640 
C          C       0.13739   0.19019   0.23769 
C          C       0.14520   0.20471   0.23048 
C          C       0.13863   0.21253   0.21645 
N          N       0.14351   0.18160   0.25107 
C          C       0.15608   0.18542   0.29925 
N          N       0.10325   0.20800   0.19676 
C          C       0.11719   0.21432   0.19702 
C          C       0.08152   0.20850   0.19637 
C          C       0.14112   0.25810   0.17483 
C          C       0.14894   0.27251   0.18673 
C          C       0.14258   0.28039   0.21439 
C          C       0.12812   0.27371   0.22152 
C          C       0.12025   0.25930   0.20892 
N          N       0.15119   0.29508   0.23473 
C          C       0.14763   0.30342   0.31019 
C          C       0.15742   0.31843   0.32182 
C          C       0.17190   0.32419   0.33352 
C          C       0.18083   0.00553   0.32458 
O          O       0.15462   0.01671   0.35234 
N          N       0.12468   0.22831   0.19178 
C          C       0.11838   0.23597   0.18607 
C          C       0.12417   0.20602   0.20833 
C          C       0.07471   0.21614   0.17766 
C          C       0.06035   0.20957   0.19048 
C          C       0.05253   0.19537   0.22427 
C          C       0.05924   0.18761   0.23743 
C          C       0.07359   0.19413   0.22399 
N          N       0.03789   0.18933   0.24358 
C          C       0.02954   0.17749   0.32057 
C          C       0.01457   0.17227   0.32976 
C          C       0.00880   0.18103   0.33623 
C          C       0.32740   0.17531   0.33137 
O          O       0.31673   0.13792   0.35635 
N          N       0.22875   0.10347   0.18831 
C          C       0.23639   0.11746   0.19232 
C          C       0.20649   0.08167   0.19121 
C          C       0.21674   0.14150   0.21219 
C          C       0.21015   0.14928   0.22551 
C          C       0.19581   0.14281   0.23705 
C          C       0.18800   0.12829   0.23031 
C          C       0.19456   0.12046   0.21663 
N          N       0.18971   0.15141   0.25033 
C          C       0.17715   0.14759   0.29907 
N          N       0.22994   0.12497   0.19758 
C          C       0.21600   0.11866   0.19783 
C          C       0.25166   0.12448   0.19767 
C          C       0.19206   0.07490   0.17531 
C          C       0.18420   0.06049   0.18697 
C          C       0.19052   0.05258   0.21688 
C          C       0.20497   0.05925   0.22687 
C          C       0.21287   0.07366   0.21444 
N          N       0.18186   0.03790   0.23617 
C          C       0.18530   0.02949   0.31256 
C          C       0.17544   0.01449   0.32247 
C          C       0.16096   0.00878   0.33002 
C          C       0.15197   0.32733   0.32180 
N          N       0.20851   0.10467   0.19334 
C          C       0.21480   0.09700   0.18845 
C          C       0.20902   0.12697   0.20841 
C          C       0.25849   0.11685   0.17993 
C          C       0.27286   0.12344   0.19220 
C          C       0.28066   0.13766   0.22452 
C          C       0.27394   0.14542   0.23671 
C          C       0.25958   0.13887   0.22382 
N          N       0.29532   0.14376   0.24333 
C          C       0.30363   0.15562   0.32008 
C          C       0.31862   0.16092   0.32889 
C          C       0.32448   0.15223   0.33539 
C          C       0.00572   0.15790   0.33236 
N          N       0.43740   0.23001   0.18710 
C          C       0.42976   0.21602   0.19084 
C          C       0.45968   0.25181   0.18954 
C          C       0.44946   0.19201   0.21012 
C          C       0.45609   0.18426   0.22339 
C          C       0.47044   0.19077   0.23300 
C          C       0.47822   0.20529   0.22412 
C          C       0.47162   0.21308   0.21056 
N          N       0.47658   0.18222   0.24696 
C          C       0.48917   0.18610   0.29524 
C          C       0.49429   0.17620   0.29808 
C          C       0.48534   0.16173   0.29747 
C          C       0.49097   0.15299   0.30527 
O          O       0.52857   0.17830   0.31178 
C          C       0.53731   0.19030   0.20216 
N          N       0.43622   0.20851   0.19509 
C          C       0.45015   0.21483   0.19455 
C          C       0.41449   0.20899   0.19686 
C          C       0.47410   0.25855   0.17238 
C          C       0.48199   0.27295   0.18462 
C          C       0.47573   0.28088   0.21638 
C          C       0.46128   0.27426   0.22766 
C          C       0.45334   0.25985   0.21458 
N          N       0.48444   0.29556   0.23622 
C          C       0.48108   0.30399   0.31344 
C          C       0.49099   0.31898   0.32368 
C          C       0.50547   0.32459   0.33071 
C          C       0.51318   0.00499   0.28802 
O          O       0.48887   0.01803   0.20450 
C          C       0.47687   0.01531   0.30961 
N          N       0.45764   0.22882   0.19024 
C          C       0.45135   0.23648   0.18641 
C          C       0.45716   0.20654   0.20447 
C          C       0.40765   0.21662   0.18014 
C          C       0.39328   0.21001   0.19279 
C          C       0.38549   0.19578   0.22454 
C          C       0.39222   0.18803   0.23578 
C          C       0.40658   0.19459   0.22247 
N          N       0.37083   0.18968   0.24368 
C          C       0.36252   0.17779   0.31984 
C          C       0.34753   0.17249   0.32891 
C          C       0.34168   0.18117   0.33645 
C          C       0.66164   0.17594   0.30343 
O          O       0.64880   0.13811   0.31306 
C          C       0.65186   0.12920   0.20394 
N          N       0.56188   0.10399   0.23830 
C          C       0.56958   0.11797   0.24150 
C          C       0.53956   0.08226   0.23425 
C          C       0.55009   0.14219   0.24917 
C          C       0.54350   0.15002   0.25528 
C          C       0.52915   0.14358   0.25938 
C          C       0.52132   0.12906   0.25246 
C          C       0.52787   0.12120   0.24608 
N          N       0.52305   0.15221   0.26558 
C          C       0.51037   0.14839   0.30743 
C          C       0.50528   0.15832   0.30343 
C          C       0.51423   0.17279   0.29854 
C          C       0.50859   0.18154   0.30140 
O          O       0.47101   0.15623   0.31053 
C          C       0.46229   0.14416   0.20192 
N          N       0.56320   0.12556   0.24327 
C          C       0.54927   0.11931   0.24160 
C          C       0.58485   0.12489   0.24507 
C          C       0.52509   0.07560   0.22723 
C          C       0.51722   0.06117   0.22661 
C          C       0.52353   0.05312   0.23434 
C          C       0.53800   0.05970   0.23860 
C          C       0.54592   0.07414   0.23907 
N          N       0.51484   0.03838   0.23234 
C          C       0.51832   0.02925   0.27429 
C          C       0.50828   0.01425   0.26323 
C          C       0.49405   0.00901   0.23241 
C          C       0.48569   0.32800   0.32645 
N          N       0.54172   0.10532   0.23830 
C          C       0.54794   0.09759   0.23651 
C          C       0.54233   0.12767   0.24552 
C          C       0.59152   0.11706   0.24217 
C          C       0.60589   0.12359   0.24780 
C          C       0.61389   0.13797   0.25790 
C          C       0.60731   0.14590   0.25754 
C          C       0.59293   0.13939   0.25168 
N          N       0.62858   0.14400   0.26391 
C          C       0.63756   0.15667   0.30652 
C          C       0.65250   0.16161   0.30257 
C          C       0.65779   0.15247   0.29908 
C          C       0.33875   0.15810   0.33037 
N          N       0.77174   0.22998   0.20833 
C          C       0.76408   0.21600   0.21418 
C          C       0.79399   0.25175   0.20409 
C          C       0.78364   0.19189   0.22850 
C          C       0.79021   0.18407   0.23912 
C          C       0.80456   0.19050   0.24447 
C          C       0.81240   0.20501   0.23400 
C          C       0.80586   0.21287   0.22305 
N          N       0.81063   0.18187   0.25555 
C          C       0.82325   0.18569   0.30068 
C          C       0.82830   0.17573   0.30083 
C          C       0.81931   0.16127   0.29829 
C          C       0.82490   0.15247   0.30314 
O          O       0.86251   0.17768   0.31095 
C          C       0.87127   0.18970   0.20178 
N          N       0.77050   0.20846   0.21709 
C          C       0.78444   0.21475   0.21358 
C          C       0.74881   0.20904   0.22129 
C          C       0.80842   0.25853   0.18740 
C          C       0.81625   0.27296   0.19628 
C          C       0.80991   0.28086   0.22409 
C          C       0.79546   0.27419   0.23432 
C          C       0.78759   0.25977   0.22470 
N          N       0.81853   0.29558   0.24129 
C          C       0.81504   0.30395   0.31744 
C          C       0.82478   0.31898   0.32575 
C          C       0.83928   0.32482   0.33326 
C          C       0.84817   0.00587   0.32364 
O          O       0.82186   0.01692   0.35540 
N          N       0.79195   0.22874   0.20727 
C          C       0.78568   0.23642   0.20444 
C          C       0.79139   0.20641   0.22126 
C          C       0.74208   0.21682   0.21652 
C          C       0.72772   0.21025   0.22603 
C          C       0.71979   0.19589   0.24188 
C          C       0.72642   0.18802   0.24369 
C          C       0.74079   0.19455   0.23397 
N          N       0.70511   0.18984   0.25211 
C          C       0.69621   0.17723   0.29861 
C          C       0.68126   0.17229   0.29900 
C          C       0.67597   0.18142   0.29641 
C          C       0.99454   0.17525   0.33098 
O          O       0.98363   0.13782   0.35967 
N          N       0.89582   0.10369   0.18504 
C          C       0.90348   0.11768   0.18962 
C          C       0.87356   0.08190   0.18749 
C          C       0.88386   0.14174   0.21111 
C          C       0.87727   0.14953   0.22488 
C          C       0.86294   0.14306   0.23595 
C          C       0.85512   0.12854   0.22830 
C          C       0.86168   0.12071   0.21420 
N          N       0.85683   0.15165   0.24968 
C          C       0.84426   0.14782   0.29791 
C          C       0.83919   0.15777   0.29978 
C          C       0.84819   0.17222   0.29770 
C          C       0.84260   0.18102   0.30345 
O          O       0.80498   0.15581   0.31178 
C          C       0.79621   0.14379   0.20262 
N          N       0.89703   0.12520   0.19528 
C          C       0.88310   0.11890   0.19537 
C          C       0.91874   0.12467   0.19543 
C          C       0.85912   0.07512   0.17352 
C          C       0.85128   0.06071   0.18554 
C          C       0.85762   0.05281   0.21387 
C          C       0.87208   0.05948   0.22148 
C          C       0.87996   0.07389   0.20875 
N          N       0.84900   0.03813   0.23428 
C          C       0.85252   0.02979   0.31060 
C          C       0.84272   0.01478   0.32218 
C          C       0.82824   0.00903   0.33242 
C          C       0.81926   0.32782   0.32721 
N          N       0.87559   0.10491   0.19035 
C          C       0.88187   0.09723   0.18502 
C          C       0.87613   0.12722   0.20643 
C          C       0.92554   0.11701   0.17771 
C          C       0.93989   0.12356   0.19079 
C          C       0.94773   0.13777   0.22381 
C          C       0.94104   0.14556   0.23588 
C          C       0.92669   0.13905   0.22223 
N          N       0.96237   0.14380   0.24347 
C          C       0.97071   0.15566   0.32000 
C          C       0.98568   0.16087   0.32949 
C          C       0.99146   0.15211   0.33734 
C          C       0.67213   0.15796   0.30292 
O          O       0.68498   0.19579   0.30869 
C          C       0.68181   0.20464   0.20008 
N          N       0.10488   0.56346   0.21140 
C          C       0.09720   0.54948   0.21622 
C          C       0.12714   0.58522   0.20770 
C          C       0.11671   0.52532   0.22672 
C          C       0.12326   0.51748   0.23649 
C          C       0.13760   0.52389   0.24190 
C          C       0.14547   0.53840   0.23221 
C          C       0.13895   0.54628   0.22210 
N          N       0.14365   0.51523   0.25252 
C          C       0.15626   0.51901   0.29743 
C          C       0.16125   0.50900   0.29756 
C          C       0.15221   0.49455   0.29510 
C          C       0.15774   0.48570   0.30040 
O          O       0.19539   0.51079   0.30810 
C          C       0.20418   0.52279   0.19883 
N          N       0.10362   0.54193   0.21783 
C          C       0.11755   0.54820   0.21402 
C          C       0.08194   0.54252   0.22347 
C          C       0.14155   0.59198   0.18869 
C          C       0.14941   0.60640   0.19754 
C          C       0.14312   0.61433   0.22779 
C          C       0.12868   0.60767   0.24077 
C          C       0.12078   0.59325   0.23105 
N          N       0.15177   0.62904   0.24410 
C          C       0.14840   0.63746   0.32133 
C          C       0.15817   0.65249   0.32792 
C          C       0.17268   0.65830   0.33069 
C          C       0.18043   0.33850   0.33067 
O          O       0.15404   0.34950   0.34897 
N          N       0.12508   0.56219   0.20872 
C          C       0.11882   0.56989   0.20722 
C          C       0.12449   0.53984   0.22043 
C          C       0.07521   0.55029   0.21968 
C          C       0.06084   0.54370   0.22931 
C          C       0.05292   0.52934   0.24435 
C          C       0.05956   0.52147   0.24505 
C          C       0.07393   0.52802   0.23520 
N          N       0.03823   0.52326   0.25464 
C          C       0.02937   0.51065   0.30173 
C          C       0.01440   0.50565   0.30162 
C          C       0.00906   0.51473   0.29864 
C          C       0.32798   0.50865   0.30417 
O          O       0.31531   0.47086   0.31471 
C          C       0.31843   0.46199   0.20575 
N          N       0.22842   0.43647   0.21297 
C          C       0.23610   0.45045   0.21829 
C          C       0.20615   0.41472   0.20835 
C          C       0.21660   0.47462   0.22922 
C          C       0.21005   0.48246   0.23883 
C          C       0.19570   0.47605   0.24297 
C          C       0.18784   0.46155   0.23239 
C          C       0.19435   0.45366   0.22240 
N          N       0.18965   0.48471   0.25340 
C          C       0.17702   0.48092   0.29728 
C          C       0.17203   0.49093   0.29751 
C          C       0.18107   0.50538   0.29496 
C          C       0.17554   0.51423   0.30024 
O          O       0.13789   0.48914   0.30837 
C          C       0.12909   0.47712   0.19936 
N          N       0.22968   0.45801   0.21986 
C          C       0.21575   0.45173   0.21558 
C          C       0.25136   0.45741   0.22606 
C          C       0.19174   0.40797   0.18852 
C          C       0.18387   0.39355   0.19701 
C          C       0.19014   0.38561   0.22748 
C          C       0.20458   0.39225   0.24133 
C          C       0.21249   0.40667   0.23214 
N          N       0.18147   0.37090   0.24329 
C          C       0.18480   0.36243   0.32033 
C          C       0.17498   0.34741   0.32665 
C          C       0.16048   0.34164   0.32933 
C          C       0.15269   0.66136   0.33191 
N          N       0.20822   0.43775   0.20987 
C          C       0.21448   0.43004   0.20836 
C          C       0.20882   0.46010   0.22187 
C          C       0.25810   0.44965   0.22134 
C          C       0.27246   0.45623   0.23084 
C          C       0.28038   0.47059   0.24691 
C          C       0.27373   0.47845   0.24879 
C          C       0.25936   0.47190   0.23900 
N          N       0.29507   0.47668   0.25656 
C          C       0.30393   0.48928   0.30402 
C          C       0.31890   0.49430   0.30262 
C          C       0.32425   0.48522   0.30045 
C          C       0.00532   0.49131   0.30521 
O          O       0.01802   0.52911   0.31133 
C          C       0.01483   0.53794   0.20245 
N          N       0.43812   0.56297   0.20929 
C          C       0.43047   0.54899   0.21532 
C          C       0.46037   0.58475   0.20442 
C          C       0.45007   0.52491   0.22920 
C          C       0.45666   0.51711   0.23961 
C          C       0.47101   0.52357   0.24429 
C          C       0.47883   0.53807   0.23325 
C          C       0.47227   0.54591   0.22248 
N          N       0.47711   0.51496   0.25531 
C          C       0.48974   0.51881   0.30021 
C          C       0.49482   0.50887   0.30034 
C          C       0.48584   0.49440   0.29802 
C          C       0.49145   0.48562   0.30279 
O          O       0.52905   0.51087   0.31002 
C          C       0.53780   0.52290   0.20078 
N          N       0.43691   0.54146   0.21796 
C          C       0.45084   0.54776   0.21401 
C          C       0.41520   0.54201   0.22287 
C          C       0.47479   0.59152   0.18636 
C          C       0.48264   0.60594   0.19520 
C          C       0.47634   0.61386   0.22431 
C          C       0.46189   0.60720   0.23593 
C          C       0.45400   0.59278   0.22634 
N          N       0.48498   0.62856   0.24157 
C          C       0.48155   0.63698   0.31776 
C          C       0.49136   0.65199   0.32617 
C          C       0.50584   0.65775   0.33420 
C          C       0.51412   0.33889   0.32541 
O          O       0.48808   0.35029   0.35448 
N          N       0.45834   0.56174   0.20752 
C          C       0.45206   0.56942   0.20494 
C          C       0.45781   0.53943   0.22145 
C          C       0.40845   0.54977   0.21843 
C          C       0.39409   0.54318   0.22826 
C          C       0.38618   0.52881   0.24416 
C          C       0.39284   0.52096   0.24563 
C          C       0.40721   0.52752   0.23559 
N          N       0.37149   0.52273   0.25440 
C          C       0.36263   0.51013   0.30195 
C          C       0.34767   0.50512   0.30168 
C          C       0.34232   0.51420   0.29838 
C          C       0.66105   0.50865   0.33125 
O          O       0.65037   0.47126   0.35751 
N          N       0.56238   0.43686   0.18716 
C          C       0.57004   0.45084   0.19109 
C          C       0.54009   0.41508   0.19005 
C          C       0.55043   0.47492   0.21101 
C          C       0.54384   0.48271   0.22429 
C          C       0.52950   0.47624   0.23511 
C          C       0.52168   0.46172   0.22756 
C          C       0.52824   0.45389   0.21393 
N          N       0.52340   0.48484   0.24860 
C          C       0.51084   0.48101   0.29744 
C          C       0.50575   0.49094   0.29918 
C          C       0.51473   0.50540   0.29690 
C          C       0.50912   0.51418   0.30268 
O          O       0.47151   0.48892   0.31181 
C          C       0.46275   0.47691   0.20256 
N          N       0.56360   0.45837   0.19607 
C          C       0.54967   0.45208   0.19611 
C          C       0.58531   0.45784   0.19676 
C          C       0.52566   0.40834   0.17369 
C          C       0.51777   0.39394   0.18579 
C          C       0.52404   0.38601   0.21660 
C          C       0.53849   0.39263   0.22700 
C          C       0.54643   0.40703   0.21413 
N          N       0.51533   0.37133   0.23650 
C          C       0.51873   0.36290   0.31311 
C          C       0.50881   0.34791   0.32356 
C          C       0.49434   0.34229   0.33165 
C          C       0.48591   0.66090   0.32705 
N          N       0.54216   0.43809   0.19168 
C          C       0.54843   0.43040   0.18707 
C          C       0.54270   0.46040   0.20652 
C          C       0.59213   0.45020   0.17985 
C          C       0.60649   0.45678   0.19247 
C          C       0.61431   0.47101   0.22437 
C          C       0.60759   0.47878   0.23572 
C          C       0.59324   0.47224   0.22243 
N          N       0.62896   0.47709   0.24352 
C          C       0.63727   0.48896   0.32010 
C          C       0.65226   0.49426   0.32912 
C          C       0.65812   0.48557   0.33607 
C          C       0.33859   0.49078   0.30549 
O          O       0.35127   0.52857   0.31093 
C          C       0.34808   0.53740   0.20205 
N          N       0.77105   0.56329   0.18794 
C          C       0.76340   0.54930   0.19171 
C          C       0.79333   0.58507   0.19080 
C          C       0.78300   0.52523   0.21092 
C          C       0.78958   0.51743   0.22407 
C          C       0.80391   0.52389   0.23533 
C          C       0.81174   0.53841   0.22843 
C          C       0.80520   0.54625   0.21492 
N          N       0.81000   0.51527   0.24857 
C          C       0.82255   0.51907   0.29735 
C          C       0.82761   0.50911   0.29882 
C          C       0.81861   0.49465   0.29652 
C          C       0.82419   0.48585   0.30220 
O          O       0.86181   0.51105   0.31096 
C          C       0.87058   0.52305   0.20148 
N          N       0.76984   0.54178   0.19656 
C          C       0.78378   0.54808   0.19664 
C          C       0.74813   0.54229   0.19731 
C          C       0.80776   0.59183   0.17470 
C          C       0.81563   0.60623   0.18651 
C          C       0.80935   0.61416   0.21683 
C          C       0.79490   0.60752   0.22704 
C          C       0.78698   0.59311   0.21440 
N          N       0.81803   0.62884   0.23628 
C          C       0.81462   0.63726   0.31273 
C          C       0.82450   0.65226   0.32282 
C          C       0.83898   0.65793   0.33037 
C          C       0.84774   0.33914   0.32823 
O          O       0.82123   0.34994   0.35401 
N          N       0.79128   0.56207   0.19234 
C          C       0.78500   0.56975   0.18785 
C          C       0.79074   0.53976   0.20697 
C          C       0.74130   0.54992   0.18036 
C          C       0.72694   0.54332   0.19287 
C          C       0.71913   0.52910   0.22468 
C          C       0.72585   0.52134   0.23603 
C          C       0.74021   0.52789   0.22288 
N          N       0.70448   0.52300   0.24375 
C          C       0.69617   0.51112   0.32016 
C          C       0.68118   0.50583   0.32918 
C          C       0.67532   0.51451   0.33632 
C          C       0.99472   0.50919   0.30450 
O          O       0.98202   0.47140   0.31433 
C          C       0.98513   0.46253   0.20528 
N          N       0.89520   0.43702   0.21085 
C          C       0.90284   0.45099   0.21715 
C          C       0.87298   0.41522   0.20561 
C          C       0.88323   0.47505   0.23135 
C          C       0.87664   0.48285   0.24158 
C          C       0.86229   0.47640   0.24519 
C          C       0.85446   0.46189   0.23359 
C          C       0.86102   0.45405   0.22297 
N          N       0.85619   0.48501   0.25592 
C          C       0.84353   0.48117   0.29939 
C          C       0.83848   0.49113   0.29968 
C          C       0.84748   0.50560   0.29736 
C          C       0.84190   0.51440   0.30227 
O          O       0.80428   0.48921   0.30971 
C          C       0.79552   0.47718   0.20070 
N          N       0.89639   0.45852   0.21969 
C          C       0.88246   0.45221   0.21547 
C          C       0.91810   0.45797   0.22512 
C          C       0.85856   0.40842   0.18787 
C          C       0.85075   0.39399   0.19631 
C          C       0.85710   0.38611   0.22465 
C          C       0.87154   0.39281   0.23605 
C          C       0.87939   0.40723   0.22698 
N          N       0.84849   0.37139   0.24141 
C          C       0.85196   0.36301   0.31788 
C          C       0.84222   0.34798   0.32597 
C          C       0.82772   0.34214   0.33246 
C          C       0.81915   0.66125   0.32506 
N          N       0.87496   0.43822   0.20883 
C          C       0.88126   0.43055   0.20630 
C          C       0.87549   0.46053   0.22278 
C          C       0.92485   0.45022   0.21965 
C          C       0.93922   0.45681   0.22944 
C          C       0.94712   0.47117   0.24647 
C          C       0.94046   0.47901   0.24923 
C          C       0.92609   0.47246   0.23919 
N          N       0.96181   0.47725   0.25622 
C          C       0.97067   0.48984   0.30409 
C          C       0.98564   0.49485   0.30268 
C          C       0.99097   0.48576   0.30023 
C          C       0.67239   0.49144   0.33107 
N          N       0.10442   0.89653   0.18845 
C          C       0.09678   0.88254   0.19246 
C          C       0.12668   0.91833   0.19135 
C          C       0.11642   0.85850   0.21291 
C          C       0.12302   0.85072   0.22632 
C          C       0.13735   0.85719   0.23789 
C          C       0.14516   0.87171   0.23112 
C          C       0.13860   0.87954   0.21732 
N          N       0.14346   0.84859   0.25122 
C          C       0.15602   0.85241   0.29975 
C          C       0.16109   0.84246   0.30112 
C          C       0.15210   0.82800   0.29907 
C          C       0.15768   0.81920   0.30423 
O          O       0.19530   0.84440   0.31218 
C          C       0.20407   0.85641   0.20269 
N          N       0.10324   0.87503   0.19784 
C          C       0.11717   0.88134   0.19823 
C          C       0.08151   0.87552   0.19771 
C          C       0.14111   0.92510   0.17535 
C          C       0.14897   0.93951   0.18695 
C          C       0.14267   0.94742   0.21691 
C          C       0.12822   0.94076   0.22698 
C          C       0.12031   0.92635   0.21458 
N          N       0.15133   0.96211   0.23615 
C          C       0.14791   0.97051   0.31266 
C          C       0.15776   0.98552   0.32250 
C          C       0.17225   0.99122   0.32983 
C          C       0.18116   0.67261   0.32310 
O          O       0.15478   0.68353   0.35902 
N          N       0.12466   0.89533   0.19369 
C          C       0.11837   0.90300   0.18867 
C          C       0.12415   0.87303   0.20901 
C          C       0.07468   0.88314   0.17986 
C          C       0.06031   0.87654   0.19202 
C          C       0.05251   0.86232   0.22430 
C          C       0.05923   0.85457   0.23664 
C          C       0.07359   0.86113   0.22387 
N          N       0.03785   0.85623   0.24300 
C          C       0.02953   0.84436   0.31945 
C          C       0.01454   0.83908   0.32833 
C          C       0.00870   0.84778   0.33517 
C          C       0.32734   0.84165   0.32986 
O          O       0.31621   0.80415   0.35633 
N          N       0.22854   0.77035   0.18388 
C          C       0.23620   0.78433   0.18847 
C          C       0.20630   0.74856   0.18729 
C          C       0.21661   0.80841   0.21174 
C          C       0.21004   0.81621   0.22570 
C          C       0.19570   0.80975   0.23716 
C          C       0.18787   0.79523   0.22990 
C          C       0.19442   0.78739   0.21560 
N          N       0.18961   0.81836   0.25079 
C          C       0.17705   0.81455   0.29930 
C          C       0.17198   0.82450   0.30092 
C          C       0.18097   0.83896   0.29872 
C          C       0.17539   0.84775   0.30408 
O          O       0.13777   0.82255   0.31290 
C          C       0.12899   0.81054   0.20367 
N          N       0.22977   0.79186   0.19481 
C          C       0.21583   0.78556   0.19557 
C          C       0.25147   0.79130   0.19370 
C          C       0.19184   0.74176   0.17516 
C          C       0.18403   0.72735   0.18743 
C          C       0.19041   0.71948   0.21422 
C          C       0.20487   0.72616   0.22001 
C          C       0.21272   0.74057   0.20705 
N          N       0.18182   0.70479   0.23505 
C          C       0.18541   0.69649   0.31091 
C          C       0.17566   0.68148   0.32292 
C          C       0.16118   0.67568   0.33466 
C          C       0.15238   0.99448   0.32480 
N          N       0.20832   0.77157   0.19058 
C          C       0.21460   0.76389   0.18458 
C          C       0.20888   0.79388   0.20722 
C          C       0.25824   0.78363   0.17447 
C          C       0.27260   0.79015   0.18707 
C          C       0.28045   0.80434   0.22117 
C          C       0.27379   0.81214   0.23486 
C          C       0.25944   0.80567   0.22162 
N          N       0.29509   0.81033   0.24065 
C          C       0.30347   0.82216   0.31773 
C          C       0.31842   0.82728   0.32745 
C          C       0.32411   0.81845   0.33485 
C          C       0.00574   0.82469   0.33055 
N          N       0.43724   0.89554   0.21152 
C          C       0.42960   0.88155   0.20967 
C          C       0.45945   0.91734   0.22360 
C          C       0.44932   0.85753   0.22356 
C          C       0.45595   0.84977   0.23311 
C          C       0.47028   0.85626   0.24771 
C          C       0.47804   0.87080   0.24813 
C          C       0.47144   0.87860   0.23842 
N          N       0.47643   0.84769   0.25694 
C          C       0.48899   0.85147   0.30527 
C          C       0.49412   0.84158   0.30300 
C          C       0.48519   0.82712   0.29861 
C          C       0.49085   0.81838   0.30240 
O          O       0.52843   0.84375   0.31184 
C          C       0.53712   0.85580   0.20275 
N          N       0.43606   0.87403   0.21402 
C          C       0.44999   0.88035   0.21930 
C          C       0.41433   0.87456   0.20954 
C          C       0.47392   0.92412   0.23012 
C          C       0.48168   0.93854   0.23875 
C          C       0.47524   0.94649   0.23996 
C          C       0.46076   0.93978   0.23491 
C          C       0.45297   0.92535   0.22628 
N          N       0.48383   0.96123   0.25070 
C          C       0.48012   0.97042   0.22675 
C          C       0.49014   0.98540   0.24230 
C          C       0.50435   0.99064   0.27502 
C          C       0.51437   0.67206   0.32904 
O          O       0.48802   0.68308   0.35297 
N          N       0.45747   0.89435   0.22113 
C          C       0.45118   0.90201   0.21729 
C          C       0.45699   0.87206   0.22690 
C          C       0.40760   0.88226   0.19005 
C          C       0.39323   0.87572   0.19857 
C          C       0.38533   0.86149   0.22885 
C          C       0.39196   0.85366   0.24218 
C          C       0.40633   0.86015   0.23289 
N          N       0.37067   0.85549   0.24545 
C          C       0.36224   0.84364   0.32129 
C          C       0.34728   0.83852   0.32902 
C          C       0.34159   0.84735   0.33579 
C          C       0.66165   0.84233   0.30423 
O          O       0.64902   0.80455   0.31497 
C          C       0.65214   0.79569   0.20593 
N          N       0.56217   0.77000   0.20979 
C          C       0.56980   0.78398   0.21615 
C          C       0.53994   0.74820   0.20386 
C          C       0.55011   0.80798   0.22999 
C          C       0.54348   0.81574   0.24034 
C          C       0.52912   0.80924   0.24266 
C          C       0.52134   0.79474   0.22937 
C          C       0.52794   0.78695   0.21869 
N          N       0.52296   0.81780   0.25430 
C          C       0.51029   0.81386   0.29790 
C          C       0.50516   0.82375   0.29967 
C          C       0.51409   0.83822   0.29875 
C          C       0.50843   0.84695   0.30570 
O          O       0.47085   0.82159   0.31174 
C          C       0.46214   0.80957   0.20230 
N          N       0.56334   0.79149   0.21807 
C          C       0.54941   0.78517   0.21312 
C          C       0.58506   0.79099   0.22475 
C          C       0.52553   0.74142   0.18439 
C          C       0.51769   0.72700   0.19311 
C          C       0.52399   0.71909   0.22342 
C          C       0.53843   0.72577   0.23659 
C          C       0.54632   0.74019   0.22722 
N          N       0.51535   0.70439   0.24045 
C          C       0.51874   0.69598   0.31777 
C          C       0.50893   0.68097   0.32612 
C          C       0.49443   0.67521   0.33213 
C          C       0.48522   0.99466   0.21899 
O          O       0.50951   0.98164   0.30602 
C          C       0.52148   0.98424   0.20108 
N          N       0.54193   0.77119   0.20639 
C          C       0.54823   0.76353   0.20450 
C          C       0.54241   0.79346   0.22002 
C          C       0.59184   0.78326   0.22010 
C          C       0.60620   0.78987   0.23023 
C          C       0.61408   0.80423   0.24677 
C          C       0.60740   0.81206   0.24881 
C          C       0.59303   0.80547   0.23846 
N          N       0.62877   0.81034   0.25667 
C          C       0.63762   0.82295   0.30399 
C          C       0.65259   0.82799   0.30272 
C          C       0.65795   0.81892   0.30064 
C          C       0.33836   0.82415   0.33044 
N          N       0.77183   0.89674   0.21174 
C          C       0.76416   0.88276   0.21686 
C          C       0.79408   0.91851   0.20787 
C          C       0.78372   0.85864   0.22830 
C          C       0.79029   0.85081   0.23818 
C          C       0.80463   0.85724   0.24372 
C          C       0.81248   0.87175   0.23406 
C          C       0.80595   0.87962   0.22383 
N          N       0.81071   0.84860   0.25433 
C          C       0.82332   0.85240   0.29946 
C          C       0.82835   0.84242   0.29935 
C          C       0.81934   0.82796   0.29686 
C          C       0.82491   0.81914   0.30168 
O          O       0.86253   0.84429   0.30935 
C          C       0.87131   0.85631   0.20007 
N          N       0.77060   0.87522   0.21890 
C          C       0.78453   0.88150   0.21524 
C          C       0.74890   0.87578   0.22395 
C          C       0.80850   0.92527   0.18860 
C          C       0.81635   0.93969   0.19733 
C          C       0.81006   0.94762   0.22757 
C          C       0.79562   0.94096   0.24077 
C          C       0.78773   0.92654   0.23128 
N          N       0.81872   0.96233   0.24378 
C          C       0.81534   0.97078   0.32025 
C          C       0.82515   0.98580   0.32692 
C          C       0.83965   0.99156   0.33116 
C          C       0.84759   0.67223   0.32518 
O          O       0.82145   0.68350   0.35266 
N          N       0.79204   0.89549   0.20963 
C          C       0.78577   0.90318   0.20771 
C          C       0.79148   0.87316   0.22198 
C          C       0.74215   0.88353   0.21995 
C          C       0.72778   0.87694   0.22944 
C          C       0.71987   0.86257   0.24458 
C          C       0.72653   0.85472   0.24551 
C          C       0.74091   0.86129   0.23580 
N          N       0.70518   0.85647   0.25471 
C          C       0.69633   0.84386   0.30211 
C          C       0.68136   0.83883   0.30184 
C          C       0.67600   0.84790   0.29846 
C          C       0.99443   0.84193   0.33021 
O          O       0.98370   0.80454   0.35748 
N          N       0.89572   0.77018   0.18804 
C          C       0.90339   0.78417   0.19190 
C          C       0.87344   0.74841   0.19101 
C          C       0.88380   0.80827   0.21136 
C          C       0.87722   0.81607   0.22439 
C          C       0.86289   0.80962   0.23547 
C          C       0.85506   0.79510   0.22853 
C          C       0.86160   0.78725   0.21516 
N          N       0.85681   0.81824   0.24858 
C          C       0.84424   0.81444   0.29680 
C          C       0.83920   0.82441   0.29830 
C          C       0.84821   0.83887   0.29609 
C          C       0.84265   0.84768   0.30181 
O          O       0.80502   0.82252   0.31048 
C          C       0.79623   0.81051   0.20131 
N          N       0.89695   0.79170   0.19693 
C          C       0.88302   0.78541   0.19711 
C          C       0.91866   0.79117   0.19733 
C          C       0.85901   0.74166   0.17499 
C          C       0.85112   0.72725   0.18682 
C          C       0.85740   0.71932   0.21702 
C          C       0.87185   0.72595   0.22710 
C          C       0.87978   0.74036   0.21452 
N          N       0.84872   0.70464   0.23647 
C          C       0.85212   0.69621   0.31296 
C          C       0.84224   0.68122   0.32294 
C          C       0.82776   0.67555   0.33037 
C          C       0.81971   0.99471   0.32953 
N          N       0.87551   0.77142   0.19276 
C          C       0.88178   0.76373   0.18810 
C          C       0.87606   0.79374   0.20741 
C          C       0.92547   0.78352   0.18021 
C          C       0.93983   0.79010   0.19253 
C          C       0.94766   0.80432   0.22437 
C          C       0.94095   0.81210   0.23598 
C          C       0.92660   0.80557   0.22295 
N          N       0.96231   0.81040   0.24324 
C          C       0.97064   0.82227   0.31968 
C          C       0.98563   0.82755   0.32848 
C          C       0.99147   0.81885   0.33566 
C          C       0.67230   0.82448   0.30569 
O          O       0.68494   0.86227   0.31091 
C          C       0.68172   0.87108   0.20205 
C          C       0.16115   0.17548   0.30062 
C          C       0.15217   0.16102   0.29874 
C          C       0.15777   0.15223   0.30394 
O          O       0.19538   0.17745   0.31147 
C          C       0.20414   0.18945   0.20200 
C          C       0.17207   0.15753   0.30049 
C          C       0.18105   0.17199   0.29809 
C          C       0.17545   0.18078   0.30339 
O          O       0.13785   0.15556   0.31270 
C          C       0.12907   0.14355   0.20338 
H          H       0.10532   0.18616   0.20589 
H          H       0.11705   0.17253   0.22966 
H          H       0.15631   0.21009   0.23288 
H          H       0.14485   0.22370   0.21184 
H          H       0.16321   0.19605   0.33626 
H          H       0.14635   0.25224   0.15662 
H          H       0.16006   0.27764   0.17829 
H          H       0.12284   0.27951   0.23587 
H          H       0.10914   0.25437   0.21792 
H          H       0.13732   0.29960   0.36389 
H          H       0.19185   0.00958   0.32554 
H          H       0.16082   0.02602   0.41271 
H          H       0.08051   0.22719   0.15404 
H          H       0.05521   0.21554   0.17725 
H          H       0.05350   0.17655   0.25685 
H          H       0.07853   0.18795   0.23730 
H          H       0.03332   0.17101   0.37691 
H          H       0.32323   0.18220   0.33282 
H          H       0.30745   0.13469   0.41730 
H          H       0.22788   0.14682   0.20518 
H          H       0.21616   0.16046   0.22842 
H          H       0.17689   0.12292   0.23289 
H          H       0.18834   0.10929   0.21246 
H          H       0.17003   0.13697   0.33663 
H          H       0.18685   0.08077   0.15515 
H          H       0.17310   0.05537   0.17635 
H          H       0.21021   0.05342   0.24321 
H          H       0.22396   0.07857   0.22559 
H          H       0.19555   0.03325   0.36815 
H          H       0.14094   0.32323   0.31940 
H          H       0.25270   0.10578   0.15749 
H          H       0.27802   0.11748   0.17969 
H          H       0.27967   0.15649   0.25485 
H          H       0.25463   0.14504   0.23633 
H          H       0.29981   0.16206   0.37663 
H          H       0.00983   0.15095   0.33397 
H          H       0.43832   0.18667   0.20491 
H          H       0.45010   0.17309   0.22800 
H          H       0.48933   0.21068   0.22501 
H          H       0.47783   0.22424   0.20491 
H          H       0.49626   0.19675   0.33184 
H          H       0.48414   0.14194   0.31594 
H          H       0.53160   0.19329   0.10298 
H          H       0.54430   0.18810   0.11699 
H          H       0.54369   0.19916   0.29611 
H          H       0.47927   0.25267   0.15076 
H          H       0.49309   0.27805   0.17300 
H          H       0.45608   0.28010   0.24558 
H          H       0.44225   0.25496   0.22673 
H          H       0.47084   0.30027   0.36938 
H          H       0.52396   0.00892   0.31913 
H          H       0.47320   0.00632   0.40605 
H          H       0.46840   0.01348   0.21243 
H          H       0.47939   0.02456   0.39609 
H          H       0.41343   0.22769   0.15814 
H          H       0.38812   0.21597   0.18100 
H          H       0.38650   0.17696   0.25344 
H          H       0.41153   0.18843   0.23414 
H          H       0.36635   0.17133   0.37556 
H          H       0.65759   0.18290   0.31289 
H          H       0.66059   0.13483   0.10499 
H          H       0.64266   0.12228   0.11864 
H          H       0.65415   0.12271   0.29829 
H          H       0.56123   0.14748   0.24752 
H          H       0.54954   0.16119   0.25828 
H          H       0.51021   0.12371   0.24909 
H          H       0.52163   0.11004   0.24105 
H          H       0.50317   0.13778   0.34435 
H          H       0.51541   0.19261   0.30906 
H          H       0.45594   0.13535   0.29659 
H          H       0.46804   0.14116   0.10344 
H          H       0.45528   0.14629   0.11617 
H          H       0.51989   0.08155   0.22196 
H          H       0.50609   0.05611   0.22104 
H          H       0.54326   0.05383   0.23872 
H          H       0.55703   0.07898   0.24279 
H          H       0.52869   0.03241   0.31941 
H          H       0.47468   0.32401   0.32788 
H          H       0.58561   0.10588   0.23564 
H          H       0.61095   0.11749   0.24549 
H          H       0.61313   0.15704   0.25917 
H          H       0.58809   0.14571   0.25199 
H          H       0.63431   0.16399   0.34382 
H          H       0.34292   0.15121   0.33107 
H          H       0.77249   0.18659   0.22642 
H          H       0.78417   0.17290   0.24488 
H          H       0.82351   0.21033   0.23138 
H          H       0.81211   0.22403   0.21577 
H          H       0.83044   0.19633   0.33668 
H          H       0.81805   0.14142   0.31213 
H          H       0.86556   0.19273   0.10308 
H          H       0.87824   0.18749   0.11615 
H          H       0.87768   0.19853   0.29605 
H          H       0.81363   0.25266   0.16893 
H          H       0.82735   0.27808   0.18526 
H          H       0.79020   0.28001   0.24869 
H          H       0.77649   0.25486   0.23580 
H          H       0.80482   0.30014   0.37443 
H          H       0.85919   0.00997   0.32240 
H          H       0.82810   0.02628   0.41398 
H          H       0.74795   0.22798   0.20566 
H          H       0.72263   0.21631   0.22242 
H          H       0.72066   0.17688   0.25043 
H          H       0.74567   0.18828   0.23644 
H          H       0.69952   0.16996   0.33577 
H          H       0.99043   0.18219   0.33150 
H          H       0.97435   0.13467   0.42010 
H          H       0.89500   0.14706   0.20447 
H          H       0.88329   0.16071   0.22848 
H          H       0.84401   0.12317   0.23047 
H          H       0.85545   0.10955   0.20930 
H          H       0.83713   0.13719   0.33468 
H          H       0.84946   0.19207   0.31272 
H          H       0.78981   0.13497   0.29689 
H          H       0.80190   0.14077   0.10366 
H          H       0.78924   0.14601   0.11731 
H          H       0.85389   0.08098   0.15480 
H          H       0.84016   0.05558   0.17667 
H          H       0.87734   0.05367   0.23625 
H          H       0.89107   0.07881   0.21815 
H          H       0.86281   0.03361   0.36514 
H          H       0.80822   0.32366   0.32793 
H          H       0.91973   0.10595   0.15471 
H          H       0.94503   0.11757   0.17837 
H          H       0.94679   0.15662   0.25457 
H          H       0.92177   0.14524   0.23472 
H          H       0.96694   0.16216   0.37560 
H          H       0.67619   0.15101   0.31221 
H          H       0.67957   0.21115   0.29479 
H          H       0.67301   0.19896   0.10231 
H          H       0.69095   0.21155   0.11359 
H          H       0.10556   0.52005   0.22467 
H          H       0.11720   0.50631   0.24161 
H          H       0.15658   0.54371   0.22967 
H          H       0.14521   0.55744   0.21551 
H          H       0.16347   0.52964   0.33350 
H          H       0.15085   0.47466   0.30969 
H          H       0.19850   0.52584   0.10000 
H          H       0.21113   0.52055   0.11336 
H          H       0.21061   0.53162   0.29301 
H          H       0.14673   0.58609   0.16811 
H          H       0.16050   0.61152   0.18433 
H          H       0.12345   0.61350   0.25722 
H          H       0.10970   0.58835   0.24418 
H          H       0.13824   0.63369   0.38022 
H          H       0.19145   0.34260   0.33522 
H          H       0.16009   0.35876   0.41129 
H          H       0.08107   0.56145   0.20948 
H          H       0.05574   0.54976   0.22645 
H          H       0.05381   0.51033   0.25088 
H          H       0.07882   0.52176   0.23680 
H          H       0.03272   0.50342   0.33953 
H          H       0.32386   0.51556   0.31294 
H          H       0.32717   0.46765   0.10700 
H          H       0.30924   0.45504   0.12029 
H          H       0.32074   0.45552   0.30022 
H          H       0.22774   0.47989   0.22818 
H          H       0.21611   0.49363   0.24493 
H          H       0.17673   0.45624   0.22913 
H          H       0.18809   0.44251   0.21499 
H          H       0.16980   0.47028   0.33255 
H          H       0.18243   0.52527   0.30932 
H          H       0.12269   0.46831   0.29374 
H          H       0.13477   0.47407   0.10043 
H          H       0.12213   0.47935   0.11402 
H          H       0.18658   0.41386   0.16761 
H          H       0.17279   0.38844   0.18338 
H          H       0.20980   0.38641   0.25816 
H          H       0.22357   0.41156   0.24607 
H          H       0.19495   0.36617   0.37934 
H          H       0.14166   0.65723   0.33644 
H          H       0.25224   0.43849   0.21032 
H          H       0.27757   0.45018   0.22686 
H          H       0.27949   0.48959   0.25533 
H          H       0.25448   0.47816   0.24150 
H          H       0.30059   0.49649   0.34282 
H          H       0.00942   0.48439   0.31495 
H          H       0.01257   0.54444   0.29696 
H          H       0.00605   0.53224   0.10455 
H          H       0.02398   0.54485   0.11603 
H          H       0.43892   0.51961   0.22770 
H          H       0.45064   0.50595   0.24576 
H          H       0.48994   0.54341   0.23003 
H          H       0.47851   0.55707   0.21473 
H          H       0.49691   0.52945   0.33609 
H          H       0.48462   0.47457   0.31195 
H          H       0.53208   0.52591   0.10206 
H          H       0.54477   0.52070   0.11523 
H          H       0.54419   0.53173   0.29499 
H          H       0.47998   0.58563   0.16684 
H          H       0.49374   0.61105   0.18314 
H          H       0.45665   0.61303   0.25145 
H          H       0.44291   0.58788   0.23862 
H          H       0.47134   0.63321   0.37461 
H          H       0.52512   0.34288   0.32604 
H          H       0.49434   0.35959   0.41464 
H          H       0.41430   0.56093   0.20754 
H          H       0.38897   0.54922   0.22489 
H          H       0.38709   0.50983   0.25226 
H          H       0.41211   0.52127   0.23782 
H          H       0.36599   0.50291   0.34021 
H          H       0.65688   0.51554   0.33242 
H          H       0.64108   0.46804   0.41826 
H          H       0.56157   0.48024   0.20466 
H          H       0.54985   0.49389   0.22781 
H          H       0.51057   0.45636   0.22945 
H          H       0.52201   0.44273   0.20915 
H          H       0.50373   0.47038   0.33492 
H          H       0.51596   0.52523   0.31176 
H          H       0.45636   0.46807   0.29677 
H          H       0.46844   0.47389   0.10354 
H          H       0.45577   0.47912   0.11732 
H          H       0.52049   0.41423   0.15285 
H          H       0.50667   0.38885   0.17485 
H          H       0.54370   0.38678   0.24407 
H          H       0.55752   0.41192   0.22570 
H          H       0.52898   0.36662   0.36833 
H          H       0.47488   0.65680   0.32738 
H          H       0.58633   0.43913   0.15781 
H          H       0.61164   0.45081   0.18057 
H          H       0.61333   0.48985   0.25348 
H          H       0.58831   0.47843   0.23422 
H          H       0.63345   0.49541   0.37628 
H          H       0.34270   0.48386   0.31545 
H          H       0.34581   0.54389   0.29656 
H          H       0.33930   0.53170   0.10410 
H          H       0.35723   0.54432   0.11570 
H          H       0.77186   0.51992   0.20422 
H          H       0.78355   0.50625   0.22708 
H          H       0.82285   0.54376   0.23075 
H          H       0.81143   0.55741   0.21068 
H          H       0.82968   0.52968   0.33500 
H          H       0.81733   0.47480   0.31145 
H          H       0.86489   0.52608   0.10260 
H          H       0.87753   0.52081   0.11607 
H          H       0.87700   0.53188   0.29552 
H          H       0.81294   0.58594   0.15423 
H          H       0.82674   0.61133   0.17567 
H          H       0.78967   0.61336   0.24373 
H          H       0.77588   0.58821   0.22565 
H          H       0.80437   0.63352   0.36822 
H          H       0.85878   0.34331   0.32980 
H          H       0.82733   0.35927   0.41437 
H          H       0.74709   0.56099   0.15833 
H          H       0.72178   0.54929   0.18095 
H          H       0.72012   0.51026   0.25369 
H          H       0.74515   0.52171   0.23467 
H          H       0.69999   0.50468   0.37616 
H          H       0.99061   0.51611   0.31345 
H          H       0.99387   0.46818   0.10655 
H          H       0.97594   0.45559   0.11981 
H          H       0.98743   0.45604   0.29968 
H          H       0.89437   0.48035   0.23072 
H          H       0.88266   0.49401   0.24848 
H          H       0.84335   0.45656   0.22994 
H          H       0.85479   0.44290   0.21468 
H          H       0.83633   0.47051   0.33413 
H          H       0.84876   0.52545   0.31136 
H          H       0.78913   0.46836   0.29508 
H          H       0.80122   0.47416   0.10181 
H          H       0.78854   0.47937   0.11531 
H          H       0.85333   0.41428   0.16891 
H          H       0.83964   0.38885   0.18463 
H          H       0.87682   0.38701   0.25102 
H          H       0.89049   0.41216   0.23918 
H          H       0.86217   0.36683   0.37543 
H          H       0.80814   0.65722   0.32607 
H          H       0.91901   0.43907   0.20783 
H          H       0.94433   0.45077   0.22489 
H          H       0.94621   0.49015   0.25671 
H          H       0.92119   0.47871   0.24244 
H          H       0.96733   0.49705   0.34313 
H          H       0.67656   0.48455   0.33211 
H          H       0.10529   0.85318   0.20591 
H          H       0.11701   0.83954   0.22924 
H          H       0.15627   0.87708   0.23373 
H          H       0.14483   0.89070   0.21311 
H          H       0.16315   0.86303   0.33708 
H          H       0.15083   0.80815   0.31341 
H          H       0.19837   0.85944   0.10397 
H          H       0.21101   0.85416   0.11710 
H          H       0.21050   0.86524   0.29671 
H          H       0.14631   0.91923   0.15513 
H          H       0.16008   0.94462   0.17623 
H          H       0.12298   0.94659   0.24333 
H          H       0.10921   0.92144   0.22576 
H          H       0.13766   0.96676   0.36840 
H          H       0.19219   0.67674   0.32075 
H          H       0.16103   0.69292   0.41696 
H          H       0.08047   0.89421   0.15743 
H          H       0.05515   0.88250   0.17946 
H          H       0.05351   0.84350   0.25482 
H          H       0.07854   0.85496   0.23648 
H          H       0.03334   0.83791   0.37577 
H          H       0.32329   0.84864   0.33074 
H          H       0.30695   0.80105   0.41712 
H          H       0.22775   0.81372   0.20475 
H          H       0.21606   0.82738   0.22909 
H          H       0.17676   0.78987   0.23248 
H          H       0.18819   0.77623   0.21096 
H          H       0.16991   0.80392   0.33641 
H          H       0.18224   0.85880   0.31312 
H          H       0.12258   0.80171   0.29789 
H          H       0.13468   0.80750   0.10476 
H          H       0.12203   0.81277   0.11830 
H          H       0.18660   0.74761   0.15779 
H          H       0.17291   0.72221   0.18005 
H          H       0.21015   0.72036   0.23353 
H          H       0.22384   0.74549   0.21508 
H          H       0.19573   0.70035   0.36466 
H          H       0.14136   0.99043   0.32594 
H          H       0.25241   0.77257   0.15073 
H          H       0.27771   0.78415   0.17350 
H          H       0.27956   0.82320   0.25463 
H          H       0.25453   0.81187   0.23548 
H          H       0.29973   0.82867   0.37393 
H          H       0.00989   0.81779   0.33180 
H          H       0.43820   0.85219   0.21361 
H          H       0.44998   0.83859   0.23038 
H          H       0.48914   0.87621   0.25329 
H          H       0.47763   0.88977   0.23975 
H          H       0.49608   0.86204   0.34547 
H          H       0.48405   0.80732   0.31051 
H          H       0.53136   0.85878   0.10429 
H          H       0.54412   0.85366   0.11693 
H          H       0.54349   0.86464   0.29708 
H          H       0.47922   0.91825   0.22916 
H          H       0.49280   0.94367   0.24434 
H          H       0.45536   0.94550   0.24038 
H          H       0.44184   0.92041   0.22309 
H          H       0.46960   0.96734   0.19140 
H          H       0.52540   0.67616   0.33097 
H          H       0.49416   0.69241   0.41327 
H          H       0.41346   0.89334   0.16945 
H          H       0.38814   0.88175   0.18519 
H          H       0.38615   0.84257   0.25876 
H          H       0.41121   0.85393   0.24643 
H          H       0.36593   0.83711   0.37833 
H          H       0.65752   0.84924   0.31287 
H          H       0.66087   0.80135   0.10712 
H          H       0.64295   0.78873   0.12054 
H          H       0.65446   0.78922   0.30033 
H          H       0.56126   0.81331   0.23061 
H          H       0.54947   0.82690   0.24863 
H          H       0.51023   0.78938   0.22454 
H          H       0.52174   0.77580   0.20929 
H          H       0.50314   0.80317   0.33197 
H          H       0.51524   0.85800   0.31601 
H          H       0.45579   0.80071   0.29635 
H          H       0.46787   0.80661   0.10302 
H          H       0.45511   0.81173   0.11726 
H          H       0.52033   0.74729   0.16387 
H          H       0.50660   0.72187   0.18011 
H          H       0.54368   0.71995   0.25331 
H          H       0.55740   0.74510   0.24089 
H          H       0.52892   0.69975   0.37588 
H          H       0.47445   0.99075   0.18776 
H          H       0.52514   0.99313   0.10272 
H          H       0.51893   0.97492   0.11615 
H          H       0.52997   0.98617   0.29842 
H          H       0.58601   0.77210   0.20862 
H          H       0.61134   0.78385   0.22628 
H          H       0.61313   0.82319   0.25592 
H          H       0.58811   0.81171   0.24111 
H          H       0.63426   0.83016   0.34243 
H          H       0.34240   0.81715   0.33179 
H          H       0.77258   0.85335   0.22610 
H          H       0.78425   0.83964   0.24327 
H          H       0.82359   0.87707   0.23161 
H          H       0.81220   0.89077   0.21722 
H          H       0.83051   0.86303   0.33580 
H          H       0.81804   0.80809   0.31077 
H          H       0.86561   0.85935   0.10136 
H          H       0.87826   0.85408   0.11449 
H          H       0.87773   0.86513   0.29425 
H          H       0.81368   0.91939   0.16795 
H          H       0.82744   0.94481   0.18404 
H          H       0.79039   0.94679   0.25728 
H          H       0.77664   0.92163   0.24469 
H          H       0.80517   0.96704   0.37841 
H          H       0.85860   0.67625   0.32628 
H          H       0.82767   0.69281   0.41298 
H          H       0.74800   0.89470   0.20969 
H          H       0.72266   0.88298   0.22645 
H          H       0.72079   0.84358   0.25145 
H          H       0.74580   0.85503   0.23760 
H          H       0.69970   0.83665   0.34034 
H          H       0.99028   0.84884   0.33120 
H          H       0.97442   0.80133   0.41807 
H          H       0.89494   0.81358   0.20472 
H          H       0.88325   0.82725   0.22744 
H          H       0.84395   0.78974   0.23074 
H          H       0.85536   0.77609   0.21085 
H          H       0.83710   0.80382   0.33399 
H          H       0.84952   0.85873   0.31101 
H          H       0.78982   0.80168   0.29556 
H          H       0.80191   0.80747   0.10230 
H          H       0.78926   0.81274   0.11603 
H          H       0.85383   0.74755   0.15458 
H          H       0.84002   0.72216   0.17609 
H          H       0.87708   0.72011   0.24363 
H          H       0.89088   0.74526   0.22577 
H          H       0.86237   0.69995   0.36851 
H          H       0.80869   0.99061   0.33288 
H          H       0.91966   0.77245   0.15821 
H          H       0.94498   0.78412   0.18044 
H          H       0.94670   0.82317   0.25373 
H          H       0.92167   0.81175   0.23492 
H          H       0.96683   0.82873   0.37594 
H          H       0.67642   0.81758   0.31570 
H          H       0.67944   0.87758   0.29659 
H          H       0.67294   0.86537   0.10422 
H          H       0.69086   0.87801   0.11558 
H          H       0.15092   0.14118   0.31328 
H          H       0.19843   0.19249   0.10333 
H          H       0.21108   0.18722   0.11636 
H          H       0.21057   0.19828   0.29606 
H          H       0.18230   0.19183   0.31228 
H          H       0.12265   0.13472   0.29751 
H          H       0.13475   0.14051   0.10444 
H          H       0.12211   0.14578   0.11804 
O          O       0.51224   0.64988   0.35719 
H          H       0.50606   0.64055   0.41706 
O          O       0.17916   0.65048   0.35043 
H          H       0.17313   0.64121   0.41284 
O          O       0.84529   0.64997   0.35269 
H          H       0.83907   0.64067   0.41316 
O          O       0.51173   0.31659   0.35255 
H          H       0.50550   0.30730   0.41303 
O          O       0.17826   0.31630   0.35798 
H          H       0.17200   0.30693   0.41612 
O          O       0.84576   0.31702   0.35559 
H          H       0.83964   0.30769   0.41562 
O          O       0.68307   0.52882   0.35804 
H          H       0.69236   0.53204   0.41873 
O          O       0.17859   0.98329   0.35200 
H          H       0.17239   0.97399   0.41232 
O          O       0.34948   0.86164   0.35814 
H          H       0.35871   0.86473   0.41986 
O          O       0.84607   0.98371   0.35241 
H          H       0.83999   0.97445   0.41462 
O          O       0.01662   0.19534   0.35742 
H          H       0.02588   0.19851   0.41859 
O          O       0.01647   0.86209   0.35646 
H          H       0.02575   0.86531   0.41728 
O          O       0.34942   0.19548   0.35860 
H          H       0.35871   0.19869   0.41929 
N          N       0.10443   0.22949   0.68593 
C          C       0.09679   0.21551   0.69074 
C          C       0.12667   0.25130   0.68831 
C          C       0.11646   0.19149   0.71275 
C          C       0.12306   0.18371   0.72641 
C          C       0.13739   0.19019   0.73769 
C          C       0.14520   0.20471   0.73049 
C          C       0.13863   0.21253   0.71645 
N          N       0.14351   0.18160   0.75107 
C          C       0.15608   0.18542   0.79925 
N          N       0.10325   0.20800   0.69676 
C          C       0.11719   0.21432   0.69702 
C          C       0.08152   0.20850   0.69637 
C          C       0.14112   0.25810   0.67483 
C          C       0.14894   0.27251   0.68673 
C          C       0.14258   0.28039   0.71439 
C          C       0.12812   0.27371   0.72152 
C          C       0.12025   0.25930   0.70892 
N          N       0.15119   0.29508   0.73473 
C          C       0.14763   0.30342   0.81019 
C          C       0.15742   0.31843   0.82181 
C          C       0.17190   0.32419   0.83352 
C          C       0.18083   0.00553   0.82458 
O          O       0.15462   0.01671   0.85234 
N          N       0.12468   0.22831   0.69178 
C          C       0.11838   0.23597   0.68607 
C          C       0.12417   0.20602   0.70833 
C          C       0.07471   0.21614   0.67766 
C          C       0.06035   0.20957   0.69049 
C          C       0.05253   0.19537   0.72427 
C          C       0.05924   0.18761   0.73743 
C          C       0.07359   0.19413   0.72399 
N          N       0.03789   0.18933   0.74358 
C          C       0.02954   0.17749   0.82057 
C          C       0.01457   0.17227   0.82975 
C          C       0.00880   0.18103   0.83623 
C          C       0.32740   0.17531   0.83137 
O          O       0.31673   0.13792   0.85635 
N          N       0.22875   0.10347   0.68831 
C          C       0.23639   0.11746   0.69232 
C          C       0.20649   0.08167   0.69121 
C          C       0.21674   0.14150   0.71220 
C          C       0.21015   0.14928   0.72551 
C          C       0.19581   0.14281   0.73705 
C          C       0.18800   0.12829   0.73031 
C          C       0.19456   0.12046   0.71663 
N          N       0.18971   0.15141   0.75033 
C          C       0.17715   0.14759   0.79907 
N          N       0.22994   0.12497   0.69758 
C          C       0.21600   0.11866   0.69783 
C          C       0.25166   0.12448   0.69767 
C          C       0.19206   0.07490   0.67532 
C          C       0.18420   0.06049   0.68697 
C          C       0.19052   0.05258   0.71688 
C          C       0.20497   0.05925   0.72686 
C          C       0.21287   0.07366   0.71444 
N          N       0.18186   0.03790   0.73616 
C          C       0.18530   0.02949   0.81256 
C          C       0.17544   0.01449   0.82247 
C          C       0.16096   0.00878   0.83001 
C          C       0.15197   0.32733   0.82180 
N          N       0.20851   0.10467   0.69333 
C          C       0.21480   0.09700   0.68845 
C          C       0.20902   0.12697   0.70841 
C          C       0.25849   0.11685   0.67993 
C          C       0.27286   0.12344   0.69220 
C          C       0.28066   0.13766   0.72452 
C          C       0.27394   0.14542   0.73671 
C          C       0.25958   0.13887   0.72382 
N          N       0.29532   0.14376   0.74333 
C          C       0.30363   0.15562   0.82007 
C          C       0.31862   0.16092   0.82889 
C          C       0.32448   0.15223   0.83539 
C          C       0.00572   0.15790   0.83236 
N          N       0.43740   0.23001   0.68710 
C          C       0.42976   0.21602   0.69084 
C          C       0.45968   0.25181   0.68954 
C          C       0.44946   0.19201   0.71012 
C          C       0.45609   0.18426   0.72338 
C          C       0.47044   0.19077   0.73300 
C          C       0.47822   0.20529   0.72412 
C          C       0.47162   0.21308   0.71056 
N          N       0.47658   0.18222   0.74696 
C          C       0.48917   0.18610   0.79524 
C          C       0.49429   0.17620   0.79808 
C          C       0.48534   0.16173   0.79748 
C          C       0.49097   0.15299   0.80527 
O          O       0.52857   0.17830   0.81178 
C          C       0.53731   0.19030   0.70215 
N          N       0.43622   0.20851   0.69510 
C          C       0.45015   0.21483   0.69455 
C          C       0.41449   0.20899   0.69686 
C          C       0.47410   0.25855   0.67238 
C          C       0.48199   0.27295   0.68462 
C          C       0.47573   0.28088   0.71638 
C          C       0.46128   0.27426   0.72766 
C          C       0.45334   0.25985   0.71458 
N          N       0.48444   0.29556   0.73622 
C          C       0.48108   0.30399   0.81344 
C          C       0.49099   0.31898   0.82368 
C          C       0.50547   0.32459   0.83071 
C          C       0.51318   0.00499   0.78802 
O          O       0.48887   0.01803   0.70450 
C          C       0.47687   0.01531   0.80961 
N          N       0.45764   0.22882   0.69024 
C          C       0.45135   0.23648   0.68642 
C          C       0.45716   0.20654   0.70447 
C          C       0.40765   0.21662   0.68014 
C          C       0.39328   0.21001   0.69279 
C          C       0.38549   0.19578   0.72454 
C          C       0.39222   0.18803   0.73577 
C          C       0.40658   0.19459   0.72247 
N          N       0.37083   0.18968   0.74367 
C          C       0.36252   0.17779   0.81984 
C          C       0.34753   0.17249   0.82891 
C          C       0.34168   0.18117   0.83645 
C          C       0.66164   0.17594   0.80343 
O          O       0.64880   0.13811   0.81305 
C          C       0.65186   0.12920   0.70393 
N          N       0.56188   0.10399   0.73830 
C          C       0.56958   0.11797   0.74150 
C          C       0.53956   0.08226   0.73425 
C          C       0.55009   0.14219   0.74917 
C          C       0.54350   0.15002   0.75528 
C          C       0.52915   0.14358   0.75938 
C          C       0.52132   0.12906   0.75247 
C          C       0.52787   0.12120   0.74608 
N          N       0.52305   0.15221   0.76558 
C          C       0.51037   0.14839   0.80743 
C          C       0.50528   0.15832   0.80343 
C          C       0.51423   0.17279   0.79854 
C          C       0.50859   0.18154   0.80139 
O          O       0.47101   0.15623   0.81054 
C          C       0.46229   0.14416   0.70192 
N          N       0.56320   0.12556   0.74327 
C          C       0.54927   0.11931   0.74159 
C          C       0.58485   0.12489   0.74507 
C          C       0.52509   0.07560   0.72723 
C          C       0.51722   0.06117   0.72660 
C          C       0.52353   0.05312   0.73434 
C          C       0.53800   0.05970   0.73860 
C          C       0.54592   0.07414   0.73907 
N          N       0.51484   0.03838   0.73234 
C          C       0.51832   0.02925   0.77429 
C          C       0.50828   0.01425   0.76323 
C          C       0.49405   0.00901   0.73241 
C          C       0.48569   0.32800   0.82645 
N          N       0.54172   0.10532   0.73830 
C          C       0.54794   0.09759   0.73651 
C          C       0.54233   0.12767   0.74552 
C          C       0.59152   0.11706   0.74217 
C          C       0.60589   0.12359   0.74780 
C          C       0.61389   0.13797   0.75790 
C          C       0.60731   0.14590   0.75754 
C          C       0.59293   0.13939   0.75168 
N          N       0.62858   0.14400   0.76391 
C          C       0.63756   0.15667   0.80652 
C          C       0.65250   0.16161   0.80257 
C          C       0.65779   0.15247   0.79908 
C          C       0.33875   0.15810   0.83037 
N          N       0.77174   0.22998   0.70833 
C          C       0.76408   0.21600   0.71418 
C          C       0.79399   0.25175   0.70410 
C          C       0.78364   0.19189   0.72850 
C          C       0.79021   0.18407   0.73912 
C          C       0.80456   0.19050   0.74447 
C          C       0.81240   0.20501   0.73400 
C          C       0.80586   0.21287   0.72305 
N          N       0.81063   0.18187   0.75555 
C          C       0.82325   0.18569   0.80068 
C          C       0.82830   0.17573   0.80083 
C          C       0.81931   0.16127   0.79829 
C          C       0.82490   0.15247   0.80314 
O          O       0.86251   0.17768   0.81095 
C          C       0.87127   0.18970   0.70177 
N          N       0.77050   0.20846   0.71708 
C          C       0.78444   0.21475   0.71357 
C          C       0.74881   0.20904   0.72129 
C          C       0.80842   0.25853   0.68741 
C          C       0.81625   0.27296   0.69627 
C          C       0.80991   0.28086   0.72409 
C          C       0.79546   0.27419   0.73432 
C          C       0.78759   0.25977   0.72469 
N          N       0.81853   0.29558   0.74128 
C          C       0.81504   0.30395   0.81743 
C          C       0.82478   0.31898   0.82575 
C          C       0.83928   0.32482   0.83326 
C          C       0.84817   0.00587   0.82364 
O          O       0.82186   0.01692   0.85540 
N          N       0.79195   0.22874   0.70727 
C          C       0.78568   0.23642   0.70443 
C          C       0.79139   0.20641   0.72126 
C          C       0.74208   0.21682   0.71652 
C          C       0.72772   0.21025   0.72602 
C          C       0.71979   0.19589   0.74188 
C          C       0.72642   0.18802   0.74369 
C          C       0.74079   0.19455   0.73397 
N          N       0.70511   0.18984   0.75211 
C          C       0.69621   0.17723   0.79861 
C          C       0.68126   0.17229   0.79900 
C          C       0.67597   0.18142   0.79642 
C          C       0.99454   0.17525   0.83098 
O          O       0.98363   0.13782   0.85967 
N          N       0.89582   0.10369   0.68504 
C          C       0.90348   0.11768   0.68963 
C          C       0.87356   0.08190   0.68749 
C          C       0.88386   0.14174   0.71112 
C          C       0.87727   0.14953   0.72488 
C          C       0.86294   0.14306   0.73596 
C          C       0.85512   0.12854   0.72830 
C          C       0.86168   0.12071   0.71420 
N          N       0.85683   0.15165   0.74967 
C          C       0.84426   0.14782   0.79792 
C          C       0.83919   0.15777   0.79978 
C          C       0.84819   0.17222   0.79770 
C          C       0.84260   0.18102   0.80345 
O          O       0.80498   0.15581   0.81178 
C          C       0.79621   0.14379   0.70262 
N          N       0.89703   0.12520   0.69529 
C          C       0.88310   0.11890   0.69537 
C          C       0.91874   0.12467   0.69544 
C          C       0.85912   0.07512   0.67352 
C          C       0.85128   0.06071   0.68555 
C          C       0.85762   0.05281   0.71386 
C          C       0.87208   0.05948   0.72147 
C          C       0.87996   0.07389   0.70875 
N          N       0.84900   0.03813   0.73428 
C          C       0.85252   0.02979   0.81060 
C          C       0.84272   0.01478   0.82219 
C          C       0.82824   0.00903   0.83242 
C          C       0.81926   0.32782   0.82721 
N          N       0.87559   0.10491   0.69035 
C          C       0.88187   0.09723   0.68502 
C          C       0.87613   0.12722   0.70643 
C          C       0.92554   0.11701   0.67771 
C          C       0.93989   0.12356   0.69079 
C          C       0.94773   0.13777   0.72380 
C          C       0.94104   0.14556   0.73588 
C          C       0.92669   0.13905   0.72223 
N          N       0.96237   0.14380   0.74347 
C          C       0.97071   0.15566   0.82000 
C          C       0.98568   0.16087   0.82949 
C          C       0.99146   0.15211   0.83734 
C          C       0.67213   0.15796   0.80292 
O          O       0.68498   0.19579   0.80869 
C          C       0.68181   0.20464   0.70008 
N          N       0.10488   0.56346   0.71140 
C          C       0.09720   0.54948   0.71622 
C          C       0.12714   0.58522   0.70769 
C          C       0.11671   0.52532   0.72672 
C          C       0.12326   0.51748   0.73648 
C          C       0.13760   0.52389   0.74190 
C          C       0.14547   0.53840   0.73221 
C          C       0.13895   0.54628   0.72210 
N          N       0.14365   0.51523   0.75252 
C          C       0.15626   0.51901   0.79743 
C          C       0.16125   0.50900   0.79756 
C          C       0.15221   0.49455   0.79510 
C          C       0.15774   0.48570   0.80039 
O          O       0.19539   0.51079   0.80810 
C          C       0.20418   0.52279   0.69883 
N          N       0.10362   0.54193   0.71783 
C          C       0.11755   0.54820   0.71402 
C          C       0.08194   0.54252   0.72347 
C          C       0.14155   0.59198   0.68869 
C          C       0.14941   0.60640   0.69754 
C          C       0.14312   0.61433   0.72779 
C          C       0.12868   0.60767   0.74077 
C          C       0.12078   0.59325   0.73105 
N          N       0.15177   0.62904   0.74410 
C          C       0.14840   0.63746   0.82134 
C          C       0.15817   0.65249   0.82792 
C          C       0.17268   0.65830   0.83068 
C          C       0.18043   0.33850   0.83067 
O          O       0.15404   0.34950   0.84897 
N          N       0.12508   0.56219   0.70871 
C          C       0.11882   0.56989   0.70722 
C          C       0.12449   0.53984   0.72043 
C          C       0.07521   0.55029   0.71968 
C          C       0.06084   0.54370   0.72931 
C          C       0.05292   0.52934   0.74435 
C          C       0.05956   0.52147   0.74504 
C          C       0.07393   0.52802   0.73520 
N          N       0.03823   0.52326   0.75464 
C          C       0.02937   0.51065   0.80173 
C          C       0.01440   0.50565   0.80163 
C          C       0.00906   0.51473   0.79864 
C          C       0.32798   0.50865   0.80417 
O          O       0.31531   0.47086   0.81471 
C          C       0.31843   0.46199   0.70575 
N          N       0.22842   0.43647   0.71297 
C          C       0.23610   0.45045   0.71830 
C          C       0.20615   0.41472   0.70835 
C          C       0.21660   0.47462   0.72922 
C          C       0.21005   0.48246   0.73883 
C          C       0.19570   0.47605   0.74298 
C          C       0.18784   0.46155   0.73239 
C          C       0.19435   0.45366   0.72240 
N          N       0.18965   0.48471   0.75340 
C          C       0.17702   0.48092   0.79728 
C          C       0.17203   0.49093   0.79751 
C          C       0.18107   0.50538   0.79495 
C          C       0.17554   0.51423   0.80024 
O          O       0.13789   0.48914   0.80837 
C          C       0.12909   0.47712   0.69937 
N          N       0.22968   0.45801   0.71986 
C          C       0.21575   0.45173   0.71559 
C          C       0.25136   0.45741   0.72605 
C          C       0.19174   0.40797   0.68852 
C          C       0.18387   0.39355   0.69700 
C          C       0.19014   0.38561   0.72748 
C          C       0.20458   0.39225   0.74134 
C          C       0.21249   0.40667   0.73214 
N          N       0.18147   0.37090   0.74329 
C          C       0.18480   0.36243   0.82033 
C          C       0.17498   0.34741   0.82666 
C          C       0.16048   0.34164   0.82933 
C          C       0.15269   0.66136   0.83191 
N          N       0.20822   0.43775   0.70987 
C          C       0.21448   0.43004   0.70836 
C          C       0.20882   0.46010   0.72187 
C          C       0.25810   0.44965   0.72134 
C          C       0.27246   0.45623   0.73085 
C          C       0.28038   0.47059   0.74690 
C          C       0.27373   0.47845   0.74879 
C          C       0.25936   0.47190   0.73899 
N          N       0.29507   0.47668   0.75656 
C          C       0.30393   0.48928   0.80402 
C          C       0.31890   0.49430   0.80261 
C          C       0.32425   0.48522   0.80045 
C          C       0.00532   0.49131   0.80520 
O          O       0.01802   0.52911   0.81133 
C          C       0.01483   0.53794   0.70244 
N          N       0.43812   0.56297   0.70929 
C          C       0.43047   0.54899   0.71532 
C          C       0.46037   0.58475   0.70442 
C          C       0.45007   0.52491   0.72920 
C          C       0.45666   0.51711   0.73961 
C          C       0.47101   0.52357   0.74429 
C          C       0.47883   0.53807   0.73325 
C          C       0.47227   0.54591   0.72248 
N          N       0.47711   0.51496   0.75531 
C          C       0.48974   0.51881   0.80021 
C          C       0.49482   0.50887   0.80034 
C          C       0.48584   0.49440   0.79802 
C          C       0.49145   0.48562   0.80279 
O          O       0.52905   0.51087   0.81002 
C          C       0.53780   0.52290   0.70078 
N          N       0.43691   0.54146   0.71796 
C          C       0.45084   0.54776   0.71401 
C          C       0.41520   0.54201   0.72287 
C          C       0.47479   0.59152   0.68636 
C          C       0.48264   0.60594   0.69520 
C          C       0.47634   0.61386   0.72432 
C          C       0.46189   0.60720   0.73593 
C          C       0.45400   0.59278   0.72634 
N          N       0.48498   0.62856   0.74157 
C          C       0.48155   0.63698   0.81776 
C          C       0.49136   0.65199   0.82617 
C          C       0.50584   0.65775   0.83420 
C          C       0.51412   0.33889   0.82541 
O          O       0.48808   0.35029   0.85448 
N          N       0.45834   0.56174   0.70752 
C          C       0.45206   0.56942   0.70493 
C          C       0.45781   0.53943   0.72145 
C          C       0.40845   0.54977   0.71843 
C          C       0.39409   0.54318   0.72827 
C          C       0.38618   0.52881   0.74416 
C          C       0.39284   0.52096   0.74564 
C          C       0.40721   0.52752   0.73559 
N          N       0.37149   0.52273   0.75440 
C          C       0.36263   0.51013   0.80195 
C          C       0.34767   0.50512   0.80168 
C          C       0.34232   0.51420   0.79838 
C          C       0.66105   0.50865   0.83125 
O          O       0.65037   0.47126   0.85751 
N          N       0.56238   0.43686   0.68716 
C          C       0.57004   0.45084   0.69109 
C          C       0.54009   0.41508   0.69005 
C          C       0.55043   0.47492   0.71101 
C          C       0.54384   0.48271   0.72429 
C          C       0.52950   0.47624   0.73511 
C          C       0.52168   0.46172   0.72756 
C          C       0.52824   0.45389   0.71392 
N          N       0.52340   0.48484   0.74860 
C          C       0.51084   0.48101   0.79744 
C          C       0.50575   0.49094   0.79919 
C          C       0.51473   0.50540   0.79690 
C          C       0.50912   0.51418   0.80268 
O          O       0.47151   0.48892   0.81181 
C          C       0.46275   0.47691   0.70256 
N          N       0.56360   0.45837   0.69607 
C          C       0.54967   0.45208   0.69611 
C          C       0.58531   0.45784   0.69676 
C          C       0.52566   0.40834   0.67368 
C          C       0.51777   0.39394   0.68579 
C          C       0.52404   0.38601   0.71660 
C          C       0.53849   0.39263   0.72699 
C          C       0.54643   0.40703   0.71413 
N          N       0.51533   0.37133   0.73650 
C          C       0.51873   0.36290   0.81311 
C          C       0.50881   0.34791   0.82356 
C          C       0.49434   0.34229   0.83165 
C          C       0.48591   0.66090   0.82705 
N          N       0.54216   0.43809   0.69168 
C          C       0.54843   0.43040   0.68707 
C          C       0.54270   0.46040   0.70652 
C          C       0.59213   0.45020   0.67985 
C          C       0.60649   0.45678   0.69247 
C          C       0.61431   0.47101   0.72437 
C          C       0.60759   0.47878   0.73572 
C          C       0.59324   0.47224   0.72242 
N          N       0.62896   0.47709   0.74352 
C          C       0.63727   0.48896   0.82010 
C          C       0.65226   0.49426   0.82912 
C          C       0.65812   0.48557   0.83607 
C          C       0.33859   0.49078   0.80549 
O          O       0.35127   0.52857   0.81093 
C          C       0.34808   0.53740   0.70205 
N          N       0.77105   0.56329   0.68794 
C          C       0.76340   0.54930   0.69172 
C          C       0.79333   0.58507   0.69080 
C          C       0.78300   0.52523   0.71092 
C          C       0.78958   0.51743   0.72407 
C          C       0.80391   0.52389   0.73533 
C          C       0.81174   0.53841   0.72843 
C          C       0.80520   0.54625   0.71492 
N          N       0.81000   0.51527   0.74857 
C          C       0.82255   0.51907   0.79735 
C          C       0.82761   0.50911   0.79882 
C          C       0.81861   0.49465   0.79652 
C          C       0.82419   0.48585   0.80220 
O          O       0.86181   0.51105   0.81096 
C          C       0.87058   0.52305   0.70148 
N          N       0.76984   0.54178   0.69656 
C          C       0.78378   0.54808   0.69664 
C          C       0.74813   0.54229   0.69731 
C          C       0.80776   0.59183   0.67470 
C          C       0.81563   0.60623   0.68651 
C          C       0.80935   0.61416   0.71683 
C          C       0.79490   0.60752   0.72705 
C          C       0.78698   0.59311   0.71440 
N          N       0.81803   0.62884   0.73629 
C          C       0.81462   0.63726   0.81273 
C          C       0.82450   0.65226   0.82281 
C          C       0.83898   0.65793   0.83037 
C          C       0.84774   0.33914   0.82824 
O          O       0.82123   0.34994   0.85401 
N          N       0.79128   0.56207   0.69234 
C          C       0.78500   0.56975   0.68785 
C          C       0.79074   0.53976   0.70697 
C          C       0.74130   0.54992   0.68036 
C          C       0.72694   0.54332   0.69287 
C          C       0.71913   0.52910   0.72467 
C          C       0.72585   0.52134   0.73603 
C          C       0.74021   0.52789   0.72288 
N          N       0.70448   0.52300   0.74375 
C          C       0.69617   0.51112   0.82016 
C          C       0.68118   0.50583   0.82918 
C          C       0.67532   0.51451   0.83632 
C          C       0.99472   0.50919   0.80450 
O          O       0.98202   0.47140   0.81434 
C          C       0.98513   0.46253   0.70528 
N          N       0.89520   0.43702   0.71085 
C          C       0.90284   0.45099   0.71714 
C          C       0.87298   0.41522   0.70561 
C          C       0.88323   0.47505   0.73135 
C          C       0.87664   0.48285   0.74157 
C          C       0.86229   0.47640   0.74520 
C          C       0.85446   0.46189   0.73359 
C          C       0.86102   0.45405   0.72297 
N          N       0.85619   0.48501   0.75591 
C          C       0.84353   0.48117   0.79938 
C          C       0.83848   0.49113   0.79967 
C          C       0.84748   0.50560   0.79736 
C          C       0.84190   0.51440   0.80227 
O          O       0.80428   0.48921   0.80971 
C          C       0.79552   0.47718   0.70070 
N          N       0.89639   0.45852   0.71969 
C          C       0.88246   0.45221   0.71547 
C          C       0.91810   0.45797   0.72512 
C          C       0.85856   0.40842   0.68787 
C          C       0.85075   0.39399   0.69632 
C          C       0.85710   0.38611   0.72465 
C          C       0.87154   0.39281   0.73606 
C          C       0.87939   0.40723   0.72698 
N          N       0.84849   0.37139   0.74140 
C          C       0.85196   0.36301   0.81788 
C          C       0.84222   0.34798   0.82597 
C          C       0.82772   0.34214   0.83246 
C          C       0.81915   0.66125   0.82506 
N          N       0.87496   0.43822   0.70883 
C          C       0.88126   0.43055   0.70630 
C          C       0.87549   0.46053   0.72279 
C          C       0.92485   0.45022   0.71965 
C          C       0.93922   0.45681   0.72944 
C          C       0.94712   0.47117   0.74647 
C          C       0.94046   0.47901   0.74923 
C          C       0.92609   0.47246   0.73919 
N          N       0.96181   0.47725   0.75622 
C          C       0.97067   0.48984   0.80409 
C          C       0.98564   0.49485   0.80268 
C          C       0.99097   0.48576   0.80023 
C          C       0.67239   0.49144   0.83107 
N          N       0.10442   0.89653   0.68844 
C          C       0.09678   0.88254   0.69246 
C          C       0.12668   0.91833   0.69135 
C          C       0.11642   0.85850   0.71291 
C          C       0.12302   0.85072   0.72632 
C          C       0.13735   0.85719   0.73790 
C          C       0.14516   0.87171   0.73112 
C          C       0.13860   0.87954   0.71732 
N          N       0.14346   0.84859   0.75122 
C          C       0.15602   0.85241   0.79975 
C          C       0.16109   0.84246   0.80112 
C          C       0.15210   0.82800   0.79907 
C          C       0.15768   0.81920   0.80423 
O          O       0.19530   0.84440   0.81218 
C          C       0.20407   0.85641   0.70269 
N          N       0.10324   0.87503   0.69784 
C          C       0.11717   0.88134   0.69823 
C          C       0.08151   0.87552   0.69771 
C          C       0.14111   0.92510   0.67535 
C          C       0.14897   0.93951   0.68695 
C          C       0.14267   0.94742   0.71692 
C          C       0.12822   0.94076   0.72698 
C          C       0.12031   0.92635   0.71459 
N          N       0.15133   0.96211   0.73615 
C          C       0.14791   0.97051   0.81266 
C          C       0.15776   0.98552   0.82250 
C          C       0.17225   0.99122   0.82983 
C          C       0.18116   0.67261   0.82310 
O          O       0.15478   0.68353   0.85902 
N          N       0.12466   0.89533   0.69369 
C          C       0.11837   0.90300   0.68867 
C          C       0.12415   0.87303   0.70901 
C          C       0.07468   0.88314   0.67986 
C          C       0.06031   0.87654   0.69202 
C          C       0.05251   0.86232   0.72430 
C          C       0.05923   0.85457   0.73664 
C          C       0.07359   0.86113   0.72387 
N          N       0.03785   0.85623   0.74300 
C          C       0.02953   0.84436   0.81946 
C          C       0.01454   0.83908   0.82833 
C          C       0.00870   0.84778   0.83517 
C          C       0.32734   0.84165   0.82986 
O          O       0.31621   0.80415   0.85633 
N          N       0.22854   0.77035   0.68388 
C          C       0.23620   0.78433   0.68847 
C          C       0.20630   0.74856   0.68729 
C          C       0.21661   0.80841   0.71174 
C          C       0.21004   0.81621   0.72570 
C          C       0.19570   0.80975   0.73716 
C          C       0.18787   0.79523   0.72990 
C          C       0.19442   0.78739   0.71560 
N          N       0.18961   0.81836   0.75080 
C          C       0.17705   0.81455   0.79930 
C          C       0.17198   0.82450   0.80092 
C          C       0.18097   0.83896   0.79872 
C          C       0.17539   0.84775   0.80408 
O          O       0.13777   0.82255   0.81290 
C          C       0.12899   0.81054   0.70367 
N          N       0.22977   0.79186   0.69481 
C          C       0.21583   0.78556   0.69557 
C          C       0.25147   0.79130   0.69369 
C          C       0.19184   0.74176   0.67516 
C          C       0.18403   0.72735   0.68743 
C          C       0.19041   0.71948   0.71422 
C          C       0.20487   0.72616   0.72001 
C          C       0.21272   0.74057   0.70705 
N          N       0.18182   0.70479   0.73505 
C          C       0.18541   0.69649   0.81091 
C          C       0.17566   0.68148   0.82292 
C          C       0.16118   0.67568   0.83466 
C          C       0.15238   0.99448   0.82480 
N          N       0.20832   0.77157   0.69058 
C          C       0.21460   0.76389   0.68458 
C          C       0.20888   0.79388   0.70722 
C          C       0.25824   0.78363   0.67447 
C          C       0.27260   0.79015   0.68707 
C          C       0.28045   0.80434   0.72117 
C          C       0.27379   0.81214   0.73486 
C          C       0.25944   0.80567   0.72162 
N          N       0.29509   0.81033   0.74065 
C          C       0.30347   0.82216   0.81773 
C          C       0.31842   0.82728   0.82745 
C          C       0.32411   0.81845   0.83484 
C          C       0.00574   0.82469   0.83055 
N          N       0.43724   0.89554   0.71152 
C          C       0.42960   0.88155   0.70967 
C          C       0.45945   0.91734   0.72361 
C          C       0.44932   0.85753   0.72355 
C          C       0.45595   0.84977   0.73311 
C          C       0.47028   0.85626   0.74771 
C          C       0.47804   0.87080   0.74813 
C          C       0.47144   0.87860   0.73842 
N          N       0.47643   0.84769   0.75694 
C          C       0.48899   0.85147   0.80527 
C          C       0.49412   0.84158   0.80300 
C          C       0.48519   0.82712   0.79861 
C          C       0.49085   0.81838   0.80240 
O          O       0.52843   0.84375   0.81184 
C          C       0.53712   0.85580   0.70275 
N          N       0.43606   0.87403   0.71402 
C          C       0.44999   0.88035   0.71930 
C          C       0.41433   0.87456   0.70954 
C          C       0.47392   0.92412   0.73012 
C          C       0.48168   0.93854   0.73875 
C          C       0.47524   0.94649   0.73995 
C          C       0.46076   0.93978   0.73490 
C          C       0.45297   0.92535   0.72628 
N          N       0.48383   0.96123   0.75070 
C          C       0.48012   0.97042   0.72675 
C          C       0.49014   0.98540   0.74230 
C          C       0.50435   0.99064   0.77502 
C          C       0.51437   0.67206   0.82904 
O          O       0.48802   0.68308   0.85297 
N          N       0.45747   0.89435   0.72113 
C          C       0.45118   0.90201   0.71729 
C          C       0.45699   0.87206   0.72690 
C          C       0.40760   0.88226   0.69005 
C          C       0.39323   0.87572   0.69857 
C          C       0.38533   0.86149   0.72885 
C          C       0.39196   0.85366   0.74217 
C          C       0.40633   0.86015   0.73289 
N          N       0.37067   0.85549   0.74545 
C          C       0.36224   0.84364   0.82129 
C          C       0.34728   0.83852   0.82902 
C          C       0.34159   0.84735   0.83579 
C          C       0.66165   0.84233   0.80423 
O          O       0.64902   0.80455   0.81498 
C          C       0.65214   0.79569   0.70593 
N          N       0.56217   0.77000   0.70979 
C          C       0.56980   0.78398   0.71614 
C          C       0.53994   0.74820   0.70385 
C          C       0.55011   0.80798   0.72999 
C          C       0.54348   0.81574   0.74034 
C          C       0.52912   0.80924   0.74266 
C          C       0.52134   0.79474   0.72937 
C          C       0.52794   0.78695   0.71869 
N          N       0.52296   0.81780   0.75430 
C          C       0.51029   0.81386   0.79790 
C          C       0.50516   0.82375   0.79967 
C          C       0.51409   0.83822   0.79875 
C          C       0.50843   0.84695   0.80570 
O          O       0.47085   0.82159   0.81174 
C          C       0.46214   0.80957   0.70230 
N          N       0.56334   0.79149   0.71807 
C          C       0.54941   0.78517   0.71312 
C          C       0.58506   0.79099   0.72475 
C          C       0.52553   0.74142   0.68439 
C          C       0.51769   0.72700   0.69311 
C          C       0.52399   0.71909   0.72342 
C          C       0.53843   0.72577   0.73659 
C          C       0.54632   0.74019   0.72721 
N          N       0.51535   0.70439   0.74045 
C          C       0.51874   0.69598   0.81778 
C          C       0.50893   0.68097   0.82612 
C          C       0.49443   0.67521   0.83213 
C          C       0.48522   0.99466   0.71899 
O          O       0.50951   0.98164   0.80602 
C          C       0.52148   0.98424   0.70108 
N          N       0.54193   0.77119   0.70639 
C          C       0.54823   0.76353   0.70450 
C          C       0.54241   0.79346   0.72002 
C          C       0.59184   0.78326   0.72010 
C          C       0.60620   0.78987   0.73023 
C          C       0.61408   0.80423   0.74677 
C          C       0.60740   0.81206   0.74881 
C          C       0.59303   0.80547   0.73846 
N          N       0.62877   0.81034   0.75667 
C          C       0.63762   0.82295   0.80398 
C          C       0.65259   0.82799   0.80272 
C          C       0.65795   0.81892   0.80065 
C          C       0.33836   0.82415   0.83044 
N          N       0.77183   0.89674   0.71174 
C          C       0.76416   0.88276   0.71686 
C          C       0.79408   0.91851   0.70787 
C          C       0.78372   0.85864   0.72830 
C          C       0.79029   0.85081   0.73818 
C          C       0.80463   0.85724   0.74372 
C          C       0.81248   0.87175   0.73407 
C          C       0.80595   0.87962   0.72383 
N          N       0.81071   0.84860   0.75433 
C          C       0.82332   0.85240   0.79946 
C          C       0.82835   0.84242   0.79935 
C          C       0.81934   0.82796   0.79686 
C          C       0.82491   0.81914   0.80168 
O          O       0.86253   0.84429   0.80935 
C          C       0.87131   0.85631   0.70007 
N          N       0.77060   0.87522   0.71891 
C          C       0.78453   0.88150   0.71524 
C          C       0.74890   0.87578   0.72396 
C          C       0.80850   0.92527   0.68860 
C          C       0.81635   0.93969   0.69733 
C          C       0.81006   0.94762   0.72757 
C          C       0.79562   0.94096   0.74077 
C          C       0.78773   0.92654   0.73128 
N          N       0.81872   0.96233   0.74378 
C          C       0.81534   0.97078   0.82025 
C          C       0.82515   0.98580   0.82692 
C          C       0.83965   0.99156   0.83116 
C          C       0.84759   0.67223   0.82517 
O          O       0.82145   0.68350   0.85266 
N          N       0.79204   0.89549   0.70964 
C          C       0.78577   0.90318   0.70771 
C          C       0.79148   0.87316   0.72198 
C          C       0.74215   0.88353   0.71994 
C          C       0.72778   0.87694   0.72944 
C          C       0.71987   0.86257   0.74458 
C          C       0.72653   0.85472   0.74550 
C          C       0.74091   0.86129   0.73579 
N          N       0.70518   0.85647   0.75471 
C          C       0.69633   0.84386   0.80210 
C          C       0.68136   0.83883   0.80183 
C          C       0.67600   0.84790   0.79846 
C          C       0.99443   0.84193   0.83021 
O          O       0.98370   0.80454   0.85749 
N          N       0.89572   0.77018   0.68804 
C          C       0.90339   0.78417   0.69189 
C          C       0.87344   0.74841   0.69101 
C          C       0.88380   0.80827   0.71135 
C          C       0.87722   0.81607   0.72439 
C          C       0.86289   0.80962   0.73547 
C          C       0.85506   0.79510   0.72853 
C          C       0.86160   0.78725   0.71516 
N          N       0.85681   0.81824   0.74858 
C          C       0.84424   0.81444   0.79680 
C          C       0.83920   0.82441   0.79830 
C          C       0.84821   0.83887   0.79609 
C          C       0.84265   0.84768   0.80181 
O          O       0.80502   0.82252   0.81048 
C          C       0.79623   0.81051   0.70131 
N          N       0.89695   0.79170   0.69693 
C          C       0.88302   0.78541   0.69710 
C          C       0.91866   0.79117   0.69733 
C          C       0.85901   0.74166   0.67499 
C          C       0.85112   0.72725   0.68682 
C          C       0.85740   0.71932   0.71702 
C          C       0.87185   0.72595   0.72710 
C          C       0.87978   0.74036   0.71452 
N          N       0.84872   0.70464   0.73647 
C          C       0.85212   0.69621   0.81296 
C          C       0.84224   0.68122   0.82294 
C          C       0.82776   0.67555   0.83037 
C          C       0.81971   0.99471   0.82953 
N          N       0.87551   0.77142   0.69276 
C          C       0.88178   0.76373   0.68810 
C          C       0.87606   0.79374   0.70740 
C          C       0.92547   0.78352   0.68021 
C          C       0.93983   0.79010   0.69253 
C          C       0.94766   0.80432   0.72437 
C          C       0.94095   0.81210   0.73598 
C          C       0.92660   0.80557   0.72296 
N          N       0.96231   0.81040   0.74324 
C          C       0.97064   0.82227   0.81968 
C          C       0.98563   0.82755   0.82848 
C          C       0.99147   0.81885   0.83567 
C          C       0.67230   0.82448   0.80569 
O          O       0.68494   0.86227   0.81091 
C          C       0.68172   0.87108   0.70205 
C          C       0.16115   0.17548   0.80061 
C          C       0.15217   0.16102   0.79874 
C          C       0.15777   0.15223   0.80394 
O          O       0.19538   0.17745   0.81147 
C          C       0.20414   0.18945   0.70200 
C          C       0.17207   0.15753   0.80049 
C          C       0.18105   0.17199   0.79809 
C          C       0.17545   0.18078   0.80339 
O          O       0.13785   0.15556   0.81270 
C          C       0.12907   0.14355   0.70337 
H          H       0.10532   0.18616   0.70590 
H          H       0.11705   0.17253   0.72966 
H          H       0.15631   0.21009   0.73288 
H          H       0.14485   0.22370   0.71184 
H          H       0.16321   0.19605   0.83626 
H          H       0.14635   0.25224   0.65662 
H          H       0.16006   0.27764   0.67829 
H          H       0.12284   0.27951   0.73587 
H          H       0.10914   0.25437   0.71792 
H          H       0.13732   0.29960   0.86389 
H          H       0.19185   0.00958   0.82554 
H          H       0.16082   0.02602   0.91271 
H          H       0.08051   0.22719   0.65404 
H          H       0.05521   0.21554   0.67725 
H          H       0.05350   0.17655   0.75685 
H          H       0.07853   0.18795   0.73730 
H          H       0.03332   0.17101   0.87691 
H          H       0.32323   0.18220   0.83282 
H          H       0.30745   0.13469   0.91730 
H          H       0.22788   0.14682   0.70518 
H          H       0.21616   0.16046   0.72841 
H          H       0.17689   0.12292   0.73289 
H          H       0.18834   0.10929   0.71245 
H          H       0.17003   0.13697   0.83662 
H          H       0.18685   0.08077   0.65515 
H          H       0.17310   0.05537   0.67635 
H          H       0.21021   0.05342   0.74321 
H          H       0.22396   0.07857   0.72559 
H          H       0.19555   0.03325   0.86814 
H          H       0.14094   0.32323   0.81940 
H          H       0.25270   0.10578   0.65749 
H          H       0.27802   0.11748   0.67969 
H          H       0.27967   0.15649   0.75485 
H          H       0.25463   0.14504   0.73633 
H          H       0.29981   0.16206   0.87663 
H          H       0.00983   0.15095   0.83397 
H          H       0.43832   0.18667   0.70491 
H          H       0.45010   0.17309   0.72799 
H          H       0.48933   0.21068   0.72502 
H          H       0.47783   0.22424   0.70491 
H          H       0.49626   0.19675   0.83183 
H          H       0.48414   0.14194   0.81595 
H          H       0.53160   0.19329   0.60298 
H          H       0.54430   0.18810   0.61698 
H          H       0.54369   0.19916   0.79611 
H          H       0.47927   0.25267   0.65076 
H          H       0.49309   0.27805   0.67300 
H          H       0.45608   0.28010   0.74558 
H          H       0.44225   0.25496   0.72673 
H          H       0.47084   0.30027   0.86938 
H          H       0.52396   0.00892   0.81913 
H          H       0.47320   0.00632   0.90605 
H          H       0.46840   0.01348   0.71242 
H          H       0.47939   0.02456   0.89609 
H          H       0.41343   0.22769   0.65814 
H          H       0.38812   0.21597   0.68100 
H          H       0.38650   0.17696   0.75344 
H          H       0.41153   0.18843   0.73413 
H          H       0.36635   0.17133   0.87557 
H          H       0.65759   0.18290   0.81289 
H          H       0.66059   0.13483   0.60499 
H          H       0.64266   0.12228   0.61864 
H          H       0.65415   0.12271   0.79829 
H          H       0.56123   0.14748   0.74751 
H          H       0.54954   0.16119   0.75828 
H          H       0.51021   0.12371   0.74909 
H          H       0.52163   0.11004   0.74105 
H          H       0.50317   0.13778   0.84435 
H          H       0.51541   0.19261   0.80906 
H          H       0.45594   0.13535   0.79659 
H          H       0.46804   0.14116   0.60344 
H          H       0.45528   0.14629   0.61617 
H          H       0.51989   0.08155   0.72196 
H          H       0.50609   0.05611   0.72104 
H          H       0.54326   0.05383   0.73872 
H          H       0.55703   0.07898   0.74279 
H          H       0.52869   0.03241   0.81942 
H          H       0.47468   0.32401   0.82788 
H          H       0.58561   0.10588   0.73564 
H          H       0.61095   0.11749   0.74549 
H          H       0.61313   0.15704   0.75917 
H          H       0.58809   0.14571   0.75199 
H          H       0.63431   0.16399   0.84383 
H          H       0.34292   0.15121   0.83107 
H          H       0.77249   0.18659   0.72642 
H          H       0.78417   0.17290   0.74488 
H          H       0.82351   0.21033   0.73138 
H          H       0.81211   0.22403   0.71576 
H          H       0.83044   0.19633   0.83667 
H          H       0.81805   0.14142   0.81213 
H          H       0.86556   0.19273   0.60309 
H          H       0.87824   0.18749   0.61616 
H          H       0.87768   0.19853   0.79605 
H          H       0.81363   0.25266   0.66893 
H          H       0.82735   0.27808   0.68526 
H          H       0.79020   0.28001   0.74869 
H          H       0.77649   0.25486   0.73580 
H          H       0.80482   0.30014   0.87443 
H          H       0.85919   0.00997   0.82240 
H          H       0.82810   0.02628   0.91397 
H          H       0.74795   0.22798   0.70566 
H          H       0.72263   0.21631   0.72242 
H          H       0.72066   0.17688   0.75043 
H          H       0.74567   0.18828   0.73644 
H          H       0.69952   0.16996   0.83577 
H          H       0.99043   0.18219   0.83151 
H          H       0.97435   0.13467   0.92010 
H          H       0.89500   0.14706   0.70447 
H          H       0.88329   0.16071   0.72848 
H          H       0.84401   0.12317   0.73046 
H          H       0.85545   0.10955   0.70930 
H          H       0.83713   0.13719   0.83468 
H          H       0.84946   0.19207   0.81272 
H          H       0.78981   0.13497   0.79689 
H          H       0.80190   0.14077   0.60366 
H          H       0.78924   0.14601   0.61731 
H          H       0.85389   0.08098   0.65480 
H          H       0.84016   0.05558   0.67667 
H          H       0.87734   0.05367   0.73626 
H          H       0.89107   0.07881   0.71815 
H          H       0.86281   0.03361   0.86513 
H          H       0.80822   0.32366   0.82793 
H          H       0.91973   0.10595   0.65472 
H          H       0.94503   0.11757   0.67837 
H          H       0.94679   0.15662   0.75457 
H          H       0.92177   0.14524   0.73472 
H          H       0.96694   0.16216   0.87560 
H          H       0.67619   0.15101   0.81221 
H          H       0.67957   0.21115   0.79478 
H          H       0.67301   0.19896   0.60231 
H          H       0.69095   0.21155   0.61359 
H          H       0.10556   0.52005   0.72467 
H          H       0.11720   0.50631   0.74161 
H          H       0.15658   0.54371   0.72967 
H          H       0.14521   0.55744   0.71550 
H          H       0.16347   0.52964   0.83351 
H          H       0.15085   0.47466   0.80969 
H          H       0.19850   0.52584   0.60000 
H          H       0.21113   0.52055   0.61336 
H          H       0.21061   0.53162   0.79301 
H          H       0.14673   0.58609   0.66811 
H          H       0.16050   0.61152   0.68433 
H          H       0.12345   0.61350   0.75721 
H          H       0.10970   0.58835   0.74417 
H          H       0.13824   0.63369   0.88022 
H          H       0.19145   0.34260   0.83522 
H          H       0.16009   0.35876   0.91129 
H          H       0.08107   0.56145   0.70948 
H          H       0.05574   0.54976   0.72645 
H          H       0.05381   0.51033   0.75088 
H          H       0.07882   0.52176   0.73680 
H          H       0.03272   0.50342   0.83953 
H          H       0.32386   0.51556   0.81294 
H          H       0.32717   0.46765   0.60700 
H          H       0.30924   0.45504   0.62029 
H          H       0.32074   0.45552   0.80022 
H          H       0.22774   0.47989   0.72818 
H          H       0.21611   0.49363   0.74493 
H          H       0.17673   0.45624   0.72913 
H          H       0.18809   0.44251   0.71499 
H          H       0.16980   0.47028   0.83255 
H          H       0.18243   0.52527   0.80932 
H          H       0.12269   0.46831   0.79375 
H          H       0.13477   0.47407   0.60043 
H          H       0.12213   0.47935   0.61402 
H          H       0.18658   0.41386   0.66761 
H          H       0.17279   0.38844   0.68337 
H          H       0.20980   0.38641   0.75816 
H          H       0.22357   0.41156   0.74607 
H          H       0.19495   0.36617   0.87935 
H          H       0.14166   0.65723   0.83645 
H          H       0.25224   0.43849   0.71032 
H          H       0.27757   0.45018   0.72686 
H          H       0.27949   0.48959   0.75533 
H          H       0.25448   0.47816   0.74150 
H          H       0.30059   0.49649   0.84282 
H          H       0.00942   0.48439   0.81495 
H          H       0.01257   0.54444   0.79695 
H          H       0.00605   0.53224   0.60456 
H          H       0.02398   0.54485   0.61603 
H          H       0.43892   0.51961   0.72770 
H          H       0.45064   0.50595   0.74576 
H          H       0.48994   0.54341   0.73003 
H          H       0.47851   0.55707   0.71473 
H          H       0.49691   0.52945   0.83609 
H          H       0.48462   0.47457   0.81196 
H          H       0.53208   0.52591   0.60206 
H          H       0.54477   0.52070   0.61523 
H          H       0.54419   0.53173   0.79500 
H          H       0.47998   0.58563   0.66684 
H          H       0.49374   0.61105   0.68314 
H          H       0.45665   0.61303   0.75145 
H          H       0.44291   0.58788   0.73862 
H          H       0.47134   0.63321   0.87461 
H          H       0.52512   0.34288   0.82603 
H          H       0.49434   0.35959   0.91465 
H          H       0.41430   0.56093   0.70754 
H          H       0.38897   0.54922   0.72489 
H          H       0.38709   0.50983   0.75226 
H          H       0.41211   0.52127   0.73782 
H          H       0.36599   0.50291   0.84021 
H          H       0.65688   0.51554   0.83242 
H          H       0.64108   0.46804   0.91826 
H          H       0.56157   0.48024   0.70466 
H          H       0.54985   0.49389   0.72781 
H          H       0.51057   0.45636   0.72945 
H          H       0.52201   0.44273   0.70915 
H          H       0.50373   0.47038   0.83493 
H          H       0.51596   0.52523   0.81176 
H          H       0.45636   0.46807   0.79677 
H          H       0.46844   0.47389   0.60354 
H          H       0.45577   0.47912   0.61731 
H          H       0.52049   0.41423   0.65285 
H          H       0.50667   0.38885   0.67484 
H          H       0.54370   0.38678   0.74407 
H          H       0.55752   0.41192   0.72570 
H          H       0.52898   0.36662   0.86833 
H          H       0.47488   0.65680   0.82737 
H          H       0.58633   0.43913   0.65780 
H          H       0.61164   0.45081   0.68056 
H          H       0.61333   0.48985   0.75348 
H          H       0.58831   0.47843   0.73422 
H          H       0.63345   0.49541   0.87628 
H          H       0.34270   0.48386   0.81545 
H          H       0.34581   0.54389   0.79656 
H          H       0.33930   0.53170   0.60411 
H          H       0.35723   0.54432   0.61569 
H          H       0.77186   0.51992   0.70422 
H          H       0.78355   0.50625   0.72708 
H          H       0.82285   0.54376   0.73075 
H          H       0.81143   0.55741   0.71068 
H          H       0.82968   0.52968   0.83500 
H          H       0.81733   0.47480   0.81146 
H          H       0.86489   0.52608   0.60260 
H          H       0.87753   0.52081   0.61606 
H          H       0.87700   0.53188   0.79552 
H          H       0.81294   0.58594   0.65423 
H          H       0.82674   0.61133   0.67568 
H          H       0.78967   0.61336   0.74373 
H          H       0.77588   0.58821   0.72564 
H          H       0.80437   0.63352   0.86822 
H          H       0.85878   0.34331   0.82980 
H          H       0.82733   0.35927   0.91437 
H          H       0.74709   0.56099   0.65833 
H          H       0.72178   0.54929   0.68095 
H          H       0.72012   0.51026   0.75369 
H          H       0.74515   0.52171   0.73468 
H          H       0.69999   0.50468   0.87616 
H          H       0.99061   0.51611   0.81345 
H          H       0.99387   0.46818   0.60655 
H          H       0.97594   0.45559   0.61981 
H          H       0.98743   0.45604   0.79968 
H          H       0.89437   0.48035   0.73072 
H          H       0.88266   0.49401   0.74848 
H          H       0.84335   0.45656   0.72994 
H          H       0.85479   0.44290   0.71467 
H          H       0.83633   0.47051   0.83413 
H          H       0.84876   0.52545   0.81136 
H          H       0.78913   0.46836   0.79507 
H          H       0.80122   0.47416   0.60181 
H          H       0.78854   0.47937   0.61531 
H          H       0.85333   0.41428   0.66891 
H          H       0.83964   0.38885   0.68463 
H          H       0.87682   0.38701   0.75102 
H          H       0.89049   0.41216   0.73918 
H          H       0.86217   0.36683   0.87543 
H          H       0.80814   0.65722   0.82607 
H          H       0.91901   0.43907   0.70783 
H          H       0.94433   0.45077   0.72489 
H          H       0.94621   0.49015   0.75671 
H          H       0.92119   0.47871   0.74243 
H          H       0.96733   0.49705   0.84313 
H          H       0.67656   0.48455   0.83211 
H          H       0.10529   0.85318   0.70591 
H          H       0.11701   0.83954   0.72924 
H          H       0.15627   0.87708   0.73374 
H          H       0.14483   0.89070   0.71312 
H          H       0.16315   0.86303   0.83708 
H          H       0.15083   0.80815   0.81341 
H          H       0.19837   0.85944   0.60397 
H          H       0.21101   0.85416   0.61710 
H          H       0.21050   0.86524   0.79671 
H          H       0.14631   0.91923   0.65513 
H          H       0.16008   0.94462   0.67623 
H          H       0.12298   0.94659   0.74333 
H          H       0.10921   0.92144   0.72576 
H          H       0.13766   0.96676   0.86840 
H          H       0.19219   0.67674   0.82074 
H          H       0.16103   0.69292   0.91696 
H          H       0.08047   0.89421   0.65743 
H          H       0.05515   0.88250   0.67946 
H          H       0.05351   0.84350   0.75482 
H          H       0.07854   0.85496   0.73648 
H          H       0.03334   0.83791   0.87577 
H          H       0.32329   0.84864   0.83074 
H          H       0.30695   0.80105   0.91712 
H          H       0.22775   0.81372   0.70475 
H          H       0.21606   0.82738   0.72908 
H          H       0.17676   0.78987   0.73248 
H          H       0.18819   0.77623   0.71096 
H          H       0.16991   0.80392   0.83641 
H          H       0.18224   0.85880   0.81312 
H          H       0.12258   0.80171   0.79789 
H          H       0.13468   0.80750   0.60476 
H          H       0.12203   0.81277   0.61831 
H          H       0.18660   0.74761   0.65779 
H          H       0.17291   0.72221   0.68005 
H          H       0.21015   0.72036   0.73354 
H          H       0.22384   0.74549   0.71508 
H          H       0.19573   0.70035   0.86466 
H          H       0.14136   0.99043   0.82594 
H          H       0.25241   0.77257   0.65073 
H          H       0.27771   0.78415   0.67349 
H          H       0.27956   0.82320   0.75463 
H          H       0.25453   0.81187   0.73548 
H          H       0.29973   0.82867   0.87393 
H          H       0.00989   0.81779   0.83180 
H          H       0.43820   0.85219   0.71361 
H          H       0.44998   0.83859   0.73038 
H          H       0.48914   0.87621   0.75330 
H          H       0.47763   0.88977   0.73975 
H          H       0.49608   0.86204   0.84547 
H          H       0.48405   0.80732   0.81051 
H          H       0.53136   0.85878   0.60430 
H          H       0.54412   0.85366   0.61693 
H          H       0.54349   0.86464   0.79708 
H          H       0.47922   0.91825   0.72916 
H          H       0.49280   0.94367   0.74434 
H          H       0.45536   0.94550   0.74038 
H          H       0.44184   0.92041   0.72309 
H          H       0.46960   0.96734   0.69139 
H          H       0.52540   0.67616   0.83096 
H          H       0.49416   0.69241   0.91327 
H          H       0.41346   0.89334   0.66945 
H          H       0.38814   0.88175   0.68520 
H          H       0.38615   0.84257   0.75876 
H          H       0.41121   0.85393   0.74643 
H          H       0.36593   0.83711   0.87833 
H          H       0.65752   0.84924   0.81287 
H          H       0.66087   0.80135   0.60713 
H          H       0.64295   0.78873   0.62053 
H          H       0.65446   0.78922   0.80033 
H          H       0.56126   0.81331   0.73062 
H          H       0.54947   0.82690   0.74863 
H          H       0.51023   0.78938   0.72454 
H          H       0.52174   0.77580   0.70929 
H          H       0.50314   0.80317   0.83197 
H          H       0.51524   0.85800   0.81600 
H          H       0.45579   0.80071   0.79635 
H          H       0.46787   0.80661   0.60302 
H          H       0.45511   0.81173   0.61726 
H          H       0.52033   0.74729   0.66387 
H          H       0.50660   0.72187   0.68011 
H          H       0.54368   0.71995   0.75331 
H          H       0.55740   0.74510   0.74089 
H          H       0.52892   0.69975   0.87588 
H          H       0.47445   0.99075   0.68776 
H          H       0.52514   0.99313   0.60272 
H          H       0.51893   0.97492   0.61616 
H          H       0.52997   0.98617   0.79843 
H          H       0.58601   0.77210   0.70862 
H          H       0.61134   0.78385   0.72628 
H          H       0.61313   0.82319   0.75591 
H          H       0.58811   0.81171   0.74111 
H          H       0.63426   0.83016   0.84243 
H          H       0.34240   0.81715   0.83179 
H          H       0.77258   0.85335   0.72610 
H          H       0.78425   0.83964   0.74327 
H          H       0.82359   0.87707   0.73161 
H          H       0.81220   0.89077   0.71722 
H          H       0.83051   0.86303   0.83580 
H          H       0.81804   0.80809   0.81077 
H          H       0.86561   0.85935   0.60135 
H          H       0.87826   0.85408   0.61450 
H          H       0.87773   0.86513   0.79425 
H          H       0.81368   0.91939   0.66795 
H          H       0.82744   0.94481   0.68404 
H          H       0.79039   0.94679   0.75728 
H          H       0.77664   0.92163   0.74469 
H          H       0.80517   0.96704   0.87841 
H          H       0.85860   0.67625   0.82628 
H          H       0.82767   0.69281   0.91299 
H          H       0.74800   0.89470   0.70969 
H          H       0.72266   0.88298   0.72645 
H          H       0.72079   0.84358   0.75145 
H          H       0.74580   0.85503   0.73760 
H          H       0.69970   0.83665   0.84034 
H          H       0.99028   0.84884   0.83120 
H          H       0.97442   0.80133   0.91807 
H          H       0.89494   0.81358   0.70472 
H          H       0.88325   0.82725   0.72744 
H          H       0.84395   0.78974   0.73074 
H          H       0.85536   0.77609   0.71084 
H          H       0.83710   0.80382   0.83399 
H          H       0.84952   0.85873   0.81102 
H          H       0.78982   0.80168   0.79556 
H          H       0.80191   0.80747   0.60230 
H          H       0.78926   0.81274   0.61603 
H          H       0.85383   0.74755   0.65458 
H          H       0.84002   0.72216   0.67609 
H          H       0.87708   0.72011   0.74363 
H          H       0.89088   0.74526   0.72577 
H          H       0.86237   0.69995   0.86851 
H          H       0.80869   0.99061   0.83288 
H          H       0.91966   0.77245   0.65821 
H          H       0.94498   0.78412   0.68044 
H          H       0.94670   0.82317   0.75373 
H          H       0.92167   0.81175   0.73492 
H          H       0.96683   0.82873   0.87594 
H          H       0.67642   0.81758   0.81570 
H          H       0.67944   0.87758   0.79659 
H          H       0.67294   0.86537   0.60421 
H          H       0.69086   0.87801   0.61559 
H          H       0.15092   0.14118   0.81328 
H          H       0.19843   0.19249   0.60334 
H          H       0.21108   0.18722   0.61637 
H          H       0.21057   0.19828   0.79606 
H          H       0.18230   0.19183   0.81228 
H          H       0.12265   0.13472   0.79751 
H          H       0.13475   0.14051   0.60444 
H          H       0.12211   0.14578   0.61804 
O          O       0.51224   0.64988   0.85719 
H          H       0.50606   0.64055   0.91706 
O          O       0.17916   0.65048   0.85043 
H          H       0.17313   0.64121   0.91283 
O          O       0.84529   0.64997   0.85269 
H          H       0.83907   0.64067   0.91316 
O          O       0.51173   0.31659   0.85255 
H          H       0.50550   0.30730   0.91302 
O          O       0.17826   0.31630   0.85798 
H          H       0.17200   0.30693   0.91612 
O          O       0.84576   0.31702   0.85559 
H          H       0.83964   0.30769   0.91561 
O          O       0.68307   0.52882   0.85804 
H          H       0.69236   0.53204   0.91873 
O          O       0.17859   0.98329   0.85200 
H          H       0.17239   0.97399   0.91232 
O          O       0.34948   0.86164   0.85814 
H          H       0.35871   0.86473   0.91986 
O          O       0.84607   0.98371   0.85242 
H          H       0.83999   0.97445   0.91462 
O          O       0.01662   0.19534   0.85742 
H          H       0.02588   0.19851   0.91859 
O          O       0.01647   0.86209   0.85646 
H          H       0.02575   0.86531   0.91727 
O          O       0.34942   0.19548   0.85860 
H          H       0.35871   0.19869   0.91929 
