data_crystal
 
_cell_length_a    59.52940
_cell_length_b    59.52940
_cell_length_c    6.96370
_cell_angle_alpha 90.00000
_cell_angle_beta  90.00000
_cell_angle_gamma 120.00000
 
_space_group_name_Hall 'P 1'
_space_group_name_H-M_alt  'P 1'
 
loop_
_symmetry_equiv_pos_as_xyz
 'x,y,z' 
 
loop_
_atom_site_label
_atom_site_type_symbol
_atom_site_fract_x
_atom_site_fract_y
_atom_site_fract_z
O          O       0.31520   0.13760   0.58400 
O          O       0.86240   0.17760   0.58400 
O          O       0.82240   0.68480   0.58400 
O          O       0.19573   0.35147   0.75067 
O          O       0.15573   0.80427   0.75067 
O          O       0.64853   0.84427   0.75067 
O          O       0.98187   0.47093   0.91733 
O          O       0.52907   0.51093   0.91733 
O          O       0.48907   0.01813   0.91733 
O          O       0.86240   0.68480   0.08400 
O          O       0.82240   0.13760   0.08400 
O          O       0.31520   0.17760   0.08400 
O          O       0.64853   0.80427   0.25067 
O          O       0.19573   0.84427   0.25067 
O          O       0.15573   0.35147   0.25067 
O          O       0.52907   0.01813   0.41733 
O          O       0.48907   0.47093   0.41733 
O          O       0.98187   0.51093   0.41733 
H          H       0.33340   0.14640   0.54220 
H          H       0.85360   0.18700   0.54220 
H          H       0.81300   0.66660   0.54220 
H          H       0.18693   0.33327   0.70887 
H          H       0.14633   0.81307   0.70887 
H          H       0.66673   0.85367   0.70887 
H          H       0.00007   0.47973   0.87553 
H          H       0.52027   0.52033   0.87553 
H          H       0.47967   0.99993   0.87553 
H          H       0.85360   0.66660   0.04220 
H          H       0.81300   0.14640   0.04220 
H          H       0.33340   0.18700   0.04220 
H          H       0.66673   0.81307   0.20887 
H          H       0.18693   0.85367   0.20887 
H          H       0.14633   0.33327   0.20887 
H          H       0.52027   0.99993   0.37553 
H          H       0.47967   0.47973   0.37553 
H          H       0.00007   0.52033   0.37553 
O          O       0.31580   0.17140   0.42460 
O          O       0.82860   0.14440   0.42460 
O          O       0.85560   0.68420   0.42460 
O          O       0.16193   0.35087   0.59127 
O          O       0.18893   0.83807   0.59127 
O          O       0.64913   0.81107   0.59127 
O          O       0.98247   0.50473   0.75793 
O          O       0.49527   0.47773   0.75793 
O          O       0.52227   0.01753   0.75793 
O          O       0.82860   0.68420   0.92460 
O          O       0.85560   0.17140   0.92460 
O          O       0.31580   0.14440   0.92460 
O          O       0.64913   0.83807   0.09127 
O          O       0.16193   0.81107   0.09127 
O          O       0.18893   0.35087   0.09127 
O          O       0.49527   0.01753   0.25793 
O          O       0.52227   0.50473   0.25793 
O          O       0.98247   0.47773   0.25793 
N          N       0.05390   0.02760   0.97880 
N          N       0.97240   0.02630   0.97880 
N          N       0.97370   0.94610   0.97880 
N          N       0.30573   0.61277   0.14547 
N          N       0.30703   0.69427   0.14547 
N          N       0.38723   0.69297   0.14547 
N          N       0.72057   0.36093   0.31213 
N          N       0.63907   0.35963   0.31213 
N          N       0.64037   0.27943   0.31213 
N          N       0.97240   0.94610   0.47880 
N          N       0.97370   0.02760   0.47880 
N          N       0.05390   0.02630   0.47880 
N          N       0.38723   0.69427   0.64547 
N          N       0.30573   0.69297   0.64547 
N          N       0.30703   0.61277   0.64547 
N          N       0.63907   0.27943   0.81213 
N          N       0.64037   0.36093   0.81213 
N          N       0.72057   0.35963   0.81213 
C          C       0.02780   0.01430   0.99550 
C          C       0.98570   0.01350   0.99550 
C          C       0.98650   0.97220   0.99550 
C          C       0.31903   0.63887   0.16217 
C          C       0.31983   0.68097   0.16217 
C          C       0.36113   0.68017   0.16217 
C          C       0.69447   0.34763   0.32883 
C          C       0.65237   0.34683   0.32883 
C          C       0.65317   0.30553   0.32883 
C          C       0.98570   0.97220   0.49550 
C          C       0.98650   0.01430   0.49550 
C          C       0.02780   0.01350   0.49550 
C          C       0.36113   0.68097   0.66217 
C          C       0.31903   0.68017   0.66217 
C          C       0.31983   0.63887   0.66217 
C          C       0.65237   0.30553   0.82883 
C          C       0.65317   0.34763   0.82883 
C          C       0.69447   0.34683   0.82883 
C          C       0.06690   0.05370   0.97920 
C          C       0.94630   0.01320   0.97920 
C          C       0.98680   0.93310   0.97920 
C          C       0.27963   0.59977   0.14587 
C          C       0.32013   0.72037   0.14587 
C          C       0.40023   0.67987   0.14587 
C          C       0.73357   0.38703   0.31253 
C          C       0.61297   0.34653   0.31253 
C          C       0.65347   0.26643   0.31253 
C          C       0.94630   0.93310   0.47920 
C          C       0.98680   0.05370   0.47920 
C          C       0.06690   0.01320   0.47920 
C          C       0.40023   0.72037   0.64587 
C          C       0.27963   0.67987   0.64587 
C          C       0.32013   0.59977   0.64587 
C          C       0.61297   0.26643   0.81253 
C          C       0.65347   0.38703   0.81253 
C          C       0.73357   0.34653   0.81253 
C          C       0.09480   0.06610   0.92990 
C          C       0.93390   0.02870   0.92990 
C          C       0.97130   0.90520   0.92990 
C          C       0.26723   0.57187   0.09657 
C          C       0.30463   0.73277   0.09657 
C          C       0.42813   0.69537   0.09657 
C          C       0.76147   0.39943   0.26323 
C          C       0.60057   0.36203   0.26323 
C          C       0.63797   0.23853   0.26323 
C          C       0.93390   0.90520   0.42990 
C          C       0.97130   0.06610   0.42990 
C          C       0.09480   0.02870   0.42990 
C          C       0.42813   0.73277   0.59657 
C          C       0.26723   0.69537   0.59657 
C          C       0.30463   0.57187   0.59657 
C          C       0.60057   0.23853   0.76323 
C          C       0.63797   0.39943   0.76323 
C          C       0.76147   0.36203   0.76323 
C          C       0.10750   0.08900   0.82030 
C          C       0.91100   0.01850   0.82030 
C          C       0.98150   0.89250   0.82030 
C          C       0.24433   0.55917   0.98697 
C          C       0.31483   0.75567   0.98697 
C          C       0.44083   0.68517   0.98697 
C          C       0.77417   0.42233   0.15363 
C          C       0.57767   0.35183   0.15363 
C          C       0.64817   0.22583   0.15363 
C          C       0.91100   0.89250   0.32030 
C          C       0.98150   0.08900   0.32030 
C          C       0.10750   0.01850   0.32030 
C          C       0.44083   0.75567   0.48697 
C          C       0.24433   0.68517   0.48697 
C          C       0.31483   0.55917   0.48697 
C          C       0.57767   0.22583   0.65363 
C          C       0.64817   0.42233   0.65363 
C          C       0.77417   0.35183   0.65363 
H          H       0.09700   0.09860   0.77360 
H          H       0.90140   0.99840   0.77360 
H          H       0.00160   0.90300   0.77360 
H          H       0.23473   0.56967   0.94027 
H          H       0.33493   0.76527   0.94027 
H          H       0.43033   0.66507   0.94027 
H          H       0.76367   0.43193   0.10693 
H          H       0.56807   0.33173   0.10693 
H          H       0.66827   0.23633   0.10693 
H          H       0.90140   0.90300   0.27360 
H          H       0.00160   0.09860   0.27360 
H          H       0.09700   0.99840   0.27360 
H          H       0.43033   0.76527   0.44027 
H          H       0.23473   0.66507   0.44027 
H          H       0.33493   0.56967   0.44027 
H          H       0.56807   0.23633   0.60693 
H          H       0.66827   0.43193   0.60693 
H          H       0.76367   0.33173   0.60693 
C          C       0.13340   0.09940   0.76830 
C          C       0.90060   0.03400   0.76830 
C          C       0.96600   0.86660   0.76830 
C          C       0.23393   0.53327   0.93497 
C          C       0.29933   0.76607   0.93497 
C          C       0.46673   0.70067   0.93497 
C          C       0.80007   0.43273   0.10163 
C          C       0.56727   0.36733   0.10163 
C          C       0.63267   0.19993   0.10163 
C          C       0.90060   0.86660   0.26830 
C          C       0.96600   0.09940   0.26830 
C          C       0.13340   0.03400   0.26830 
C          C       0.46673   0.76607   0.43497 
C          C       0.23393   0.70067   0.43497 
C          C       0.29933   0.53327   0.43497 
C          C       0.56727   0.19993   0.60163 
C          C       0.63267   0.43273   0.60163 
C          C       0.80007   0.36733   0.60163 
H          H       0.14290   0.11690   0.68260 
H          H       0.88310   0.02600   0.68260 
H          H       0.97400   0.85710   0.68260 
H          H       0.21643   0.52377   0.84927 
H          H       0.30733   0.78357   0.84927 
H          H       0.47623   0.69267   0.84927 
H          H       0.80957   0.45023   0.01593 
H          H       0.54977   0.35933   0.01593 
H          H       0.64067   0.19043   0.01593 
H          H       0.88310   0.85710   0.18260 
H          H       0.97400   0.11690   0.18260 
H          H       0.14290   0.02600   0.18260 
H          H       0.47623   0.78357   0.34927 
H          H       0.21643   0.69267   0.34927 
H          H       0.30733   0.52377   0.34927 
H          H       0.54977   0.19043   0.51593 
H          H       0.64067   0.45023   0.51593 
H          H       0.80957   0.35933   0.51593 
C          C       0.14760   0.08730   0.82500 
C          C       0.91270   0.06030   0.82500 
C          C       0.93970   0.85240   0.82500 
C          C       0.24603   0.51907   0.99167 
C          C       0.27303   0.75397   0.99167 
C          C       0.48093   0.72697   0.99167 
C          C       0.81427   0.42063   0.15833 
C          C       0.57937   0.39363   0.15833 
C          C       0.60637   0.18573   0.15833 
C          C       0.91270   0.85240   0.32500 
C          C       0.93970   0.08730   0.32500 
C          C       0.14760   0.06030   0.32500 
C          C       0.48093   0.75397   0.49167 
C          C       0.24603   0.72697   0.49167 
C          C       0.27303   0.51907   0.49167 
C          C       0.57937   0.18573   0.65833 
C          C       0.60637   0.42063   0.65833 
C          C       0.81427   0.39363   0.65833 
C          C       0.13470   0.06410   0.93330 
C          C       0.93590   0.07060   0.93330 
C          C       0.92940   0.86530   0.93330 
C          C       0.26923   0.53197   0.09997 
C          C       0.26273   0.73077   0.09997 
C          C       0.46803   0.73727   0.09997 
C          C       0.80137   0.39743   0.26663 
C          C       0.60257   0.40393   0.26663 
C          C       0.59607   0.19863   0.26663 
C          C       0.93590   0.86530   0.43330 
C          C       0.92940   0.06410   0.43330 
C          C       0.13470   0.07060   0.43330 
C          C       0.46803   0.73077   0.59997 
C          C       0.26923   0.73727   0.59997 
C          C       0.26273   0.53197   0.59997 
C          C       0.60257   0.19863   0.76663 
C          C       0.59607   0.39743   0.76663 
C          C       0.80137   0.40393   0.76663 
H          H       0.14530   0.05450   0.97690 
H          H       0.94550   0.09080   0.97690 
H          H       0.90920   0.85470   0.97690 
H          H       0.27883   0.52137   0.14357 
H          H       0.24253   0.72117   0.14357 
H          H       0.47863   0.75747   0.14357 
H          H       0.81197   0.38783   0.31023 
H          H       0.61217   0.42413   0.31023 
H          H       0.57587   0.18803   0.31023 
H          H       0.94550   0.85470   0.47690 
H          H       0.90920   0.05450   0.47690 
H          H       0.14530   0.09080   0.47690 
H          H       0.47863   0.72117   0.64357 
H          H       0.27883   0.75747   0.64357 
H          H       0.24253   0.52137   0.64357 
H          H       0.61217   0.18803   0.81023 
H          H       0.57587   0.38783   0.81023 
H          H       0.81197   0.42413   0.81023 
C          C       0.10870   0.05360   0.98320 
C          C       0.94640   0.05510   0.98320 
C          C       0.94490   0.89130   0.98320 
C          C       0.27973   0.55797   0.14987 
C          C       0.27823   0.72027   0.14987 
C          C       0.44203   0.72177   0.14987 
C          C       0.77537   0.38693   0.31653 
C          C       0.61307   0.38843   0.31653 
C          C       0.61157   0.22463   0.31653 
C          C       0.94640   0.89130   0.48320 
C          C       0.94490   0.05360   0.48320 
C          C       0.10870   0.05510   0.48320 
C          C       0.44203   0.72027   0.64987 
C          C       0.27973   0.72177   0.64987 
C          C       0.27823   0.55797   0.64987 
C          C       0.61307   0.22463   0.81653 
C          C       0.61157   0.38693   0.81653 
C          C       0.77537   0.38843   0.81653 
H          H       0.09870   0.03560   0.06300 
H          H       0.96440   0.06310   0.06300 
H          H       0.93690   0.90130   0.06300 
H          H       0.29773   0.56797   0.22967 
H          H       0.27023   0.70227   0.22967 
H          H       0.43203   0.72977   0.22967 
H          H       0.76537   0.36893   0.39633 
H          H       0.63107   0.39643   0.39633 
H          H       0.60357   0.23463   0.39633 
H          H       0.96440   0.90130   0.56300 
H          H       0.93690   0.03560   0.56300 
H          H       0.09870   0.06310   0.56300 
H          H       0.43203   0.70227   0.72967 
H          H       0.29773   0.72977   0.72967 
H          H       0.27023   0.56797   0.72967 
H          H       0.63107   0.23463   0.89633 
H          H       0.60357   0.36893   0.89633 
H          H       0.76537   0.39643   0.89633 
C          C       0.17410   0.09800   0.77350 
C          C       0.90200   0.07610   0.77350 
C          C       0.92390   0.82590   0.77350 
C          C       0.23533   0.49257   0.94017 
C          C       0.25723   0.76467   0.94017 
C          C       0.50743   0.74277   0.94017 
C          C       0.84077   0.43133   0.10683 
C          C       0.56867   0.40943   0.10683 
C          C       0.59057   0.15923   0.10683 
C          C       0.90200   0.82590   0.27350 
C          C       0.92390   0.09800   0.27350 
C          C       0.17410   0.07610   0.27350 
C          C       0.50743   0.76467   0.44017 
C          C       0.23533   0.74277   0.44017 
C          C       0.25723   0.49257   0.44017 
C          C       0.56867   0.15923   0.60683 
C          C       0.59057   0.43133   0.60683 
C          C       0.84077   0.40943   0.60683 
C          C       0.19690   0.10730   0.72940 
C          C       0.89270   0.08960   0.72940 
C          C       0.91040   0.80310   0.72940 
C          C       0.22603   0.46977   0.89607 
C          C       0.24373   0.77397   0.89607 
C          C       0.53023   0.75627   0.89607 
C          C       0.86357   0.44063   0.06273 
C          C       0.55937   0.42293   0.06273 
C          C       0.57707   0.13643   0.06273 
C          C       0.89270   0.80310   0.22940 
C          C       0.91040   0.10730   0.22940 
C          C       0.19690   0.08960   0.22940 
C          C       0.53023   0.77397   0.39607 
C          C       0.22603   0.75627   0.39607 
C          C       0.24373   0.46977   0.39607 
C          C       0.55937   0.13643   0.56273 
C          C       0.57707   0.44063   0.56273 
C          C       0.86357   0.42293   0.56273 
C          C       0.22350   0.11810   0.67800 
C          C       0.88190   0.10540   0.67800 
C          C       0.89460   0.77650   0.67800 
C          C       0.21523   0.44317   0.84467 
C          C       0.22793   0.78477   0.84467 
C          C       0.55683   0.77207   0.84467 
C          C       0.89017   0.45143   0.01133 
C          C       0.54857   0.43873   0.01133 
C          C       0.56127   0.10983   0.01133 
C          C       0.88190   0.77650   0.17800 
C          C       0.89460   0.11810   0.17800 
C          C       0.22350   0.10540   0.17800 
C          C       0.55683   0.78477   0.34467 
C          C       0.21523   0.77207   0.34467 
C          C       0.22793   0.44317   0.34467 
C          C       0.54857   0.10983   0.51133 
C          C       0.56127   0.45143   0.51133 
C          C       0.89017   0.43873   0.51133 
C          C       0.23760   0.10590   0.73510 
C          C       0.89410   0.13170   0.73510 
C          C       0.86830   0.76240   0.73510 
C          C       0.22743   0.42907   0.90177 
C          C       0.20163   0.77257   0.90177 
C          C       0.57093   0.79837   0.90177 
C          C       0.90427   0.43923   0.06843 
C          C       0.56077   0.46503   0.06843 
C          C       0.53497   0.09573   0.06843 
C          C       0.89410   0.76240   0.23510 
C          C       0.86830   0.10590   0.23510 
C          C       0.23760   0.13170   0.23510 
C          C       0.57093   0.77257   0.40177 
C          C       0.22743   0.79837   0.40177 
C          C       0.20163   0.42907   0.40177 
C          C       0.56077   0.09573   0.56843 
C          C       0.53497   0.43923   0.56843 
C          C       0.90427   0.46503   0.56843 
H          H       0.22790   0.08820   0.81880 
H          H       0.91180   0.13970   0.81880 
H          H       0.86030   0.77210   0.81880 
H          H       0.24513   0.43877   0.98547 
H          H       0.19363   0.75487   0.98547 
H          H       0.56123   0.80637   0.98547 
H          H       0.89457   0.42153   0.15213 
H          H       0.57847   0.47303   0.15213 
H          H       0.52697   0.10543   0.15213 
H          H       0.91180   0.77210   0.31880 
H          H       0.86030   0.08820   0.31880 
H          H       0.22790   0.13970   0.31880 
H          H       0.56123   0.75487   0.48547 
H          H       0.24513   0.80637   0.48547 
H          H       0.19363   0.43877   0.48547 
H          H       0.57847   0.10543   0.65213 
H          H       0.52697   0.42153   0.65213 
H          H       0.89457   0.47303   0.65213 
C          C       0.26360   0.11640   0.68480 
C          C       0.88360   0.14720   0.68480 
C          C       0.85280   0.73640   0.68480 
C          C       0.21693   0.40307   0.85147 
C          C       0.18613   0.78307   0.85147 
C          C       0.59693   0.81387   0.85147 
C          C       0.93027   0.44973   0.01813 
C          C       0.55027   0.48053   0.01813 
C          C       0.51947   0.06973   0.01813 
C          C       0.88360   0.73640   0.18480 
C          C       0.85280   0.11640   0.18480 
C          C       0.26360   0.14720   0.18480 
C          C       0.59693   0.78307   0.35147 
C          C       0.21693   0.81387   0.35147 
C          C       0.18613   0.40307   0.35147 
C          C       0.55027   0.06973   0.51813 
C          C       0.51947   0.44973   0.51813 
C          C       0.93027   0.48053   0.51813 
H          H       0.27430   0.10710   0.72870 
H          H       0.89290   0.16720   0.72870 
H          H       0.83280   0.72570   0.72870 
H          H       0.22623   0.39237   0.89537 
H          H       0.16613   0.77377   0.89537 
H          H       0.60763   0.83387   0.89537 
H          H       0.94097   0.44043   0.06203 
H          H       0.55957   0.50053   0.06203 
H          H       0.49947   0.05903   0.06203 
H          H       0.89290   0.72570   0.22870 
H          H       0.83280   0.10710   0.22870 
H          H       0.27430   0.16720   0.22870 
H          H       0.60763   0.77377   0.39537 
H          H       0.22623   0.83387   0.39537 
H          H       0.16613   0.39237   0.39537 
H          H       0.55957   0.05903   0.56203 
H          H       0.49947   0.44043   0.56203 
H          H       0.94097   0.50053   0.56203 
C          C       0.27610   0.13940   0.57630 
C          C       0.86060   0.13670   0.57630 
C          C       0.86330   0.72390   0.57630 
C          C       0.19393   0.39057   0.74297 
C          C       0.19663   0.80607   0.74297 
C          C       0.60943   0.80337   0.74297 
C          C       0.94277   0.47273   0.90963 
C          C       0.52727   0.47003   0.90963 
C          C       0.52997   0.05723   0.90963 
C          C       0.86060   0.72390   0.07630 
C          C       0.86330   0.13940   0.07630 
C          C       0.27610   0.13670   0.07630 
C          C       0.60943   0.80607   0.24297 
C          C       0.19393   0.80337   0.24297 
C          C       0.19663   0.39057   0.24297 
C          C       0.52727   0.05723   0.40963 
C          C       0.52997   0.47273   0.40963 
C          C       0.94277   0.47003   0.40963 
C          C       0.26220   0.15160   0.51880 
C          C       0.84840   0.11060   0.51880 
C          C       0.88940   0.73780   0.51880 
C          C       0.18173   0.40447   0.68547 
C          C       0.22273   0.81827   0.68547 
C          C       0.59553   0.77727   0.68547 
C          C       0.92887   0.48493   0.85213 
C          C       0.51507   0.44393   0.85213 
C          C       0.55607   0.07113   0.85213 
C          C       0.84840   0.73780   0.01880 
C          C       0.88940   0.15160   0.01880 
C          C       0.26220   0.11060   0.01880 
C          C       0.59553   0.81827   0.18547 
C          C       0.18173   0.77727   0.18547 
C          C       0.22273   0.40447   0.18547 
C          C       0.51507   0.07113   0.35213 
C          C       0.55607   0.48493   0.35213 
C          C       0.92887   0.44393   0.35213 
H          H       0.27210   0.16930   0.43520 
H          H       0.83070   0.10280   0.43520 
H          H       0.89720   0.72790   0.43520 
H          H       0.16403   0.39457   0.60187 
H          H       0.23053   0.83597   0.60187 
H          H       0.60543   0.76947   0.60187 
H          H       0.93877   0.50263   0.76853 
H          H       0.49737   0.43613   0.76853 
H          H       0.56387   0.06123   0.76853 
H          H       0.83070   0.72790   0.93520 
H          H       0.89720   0.16930   0.93520 
H          H       0.27210   0.10280   0.93520 
H          H       0.60543   0.83597   0.10187 
H          H       0.16403   0.76947   0.10187 
H          H       0.23053   0.39457   0.10187 
H          H       0.49737   0.06123   0.26853 
H          H       0.56387   0.50263   0.26853 
H          H       0.93877   0.43613   0.26853 
C          C       0.23620   0.14120   0.56880 
C          C       0.85880   0.09500   0.56880 
C          C       0.90500   0.76380   0.56880 
C          C       0.19213   0.43047   0.73547 
C          C       0.23833   0.80787   0.73547 
C          C       0.56953   0.76167   0.73547 
C          C       0.90287   0.47453   0.90213 
C          C       0.52547   0.42833   0.90213 
C          C       0.57167   0.09713   0.90213 
C          C       0.85880   0.76380   0.06880 
C          C       0.90500   0.14120   0.06880 
C          C       0.23620   0.09500   0.06880 
C          C       0.56953   0.80787   0.23547 
C          C       0.19213   0.76167   0.23547 
C          C       0.23833   0.43047   0.23547 
C          C       0.52547   0.09713   0.40213 
C          C       0.57167   0.47453   0.40213 
C          C       0.90287   0.42833   0.40213 
H          H       0.22550   0.15060   0.52440 
H          H       0.84940   0.07490   0.52440 
H          H       0.92510   0.77450   0.52440 
H          H       0.18273   0.44117   0.69107 
H          H       0.25843   0.81727   0.69107 
H          H       0.55883   0.74157   0.69107 
H          H       0.89217   0.48393   0.85773 
H          H       0.51607   0.40823   0.85773 
H          H       0.59177   0.10783   0.85773 
H          H       0.84940   0.77450   0.02440 
H          H       0.92510   0.15060   0.02440 
H          H       0.22550   0.07490   0.02440 
H          H       0.55883   0.81727   0.19107 
H          H       0.18273   0.74157   0.19107 
H          H       0.25843   0.44117   0.19107 
H          H       0.51607   0.10783   0.35773 
H          H       0.59177   0.48393   0.35773 
H          H       0.89217   0.40823   0.35773 
C          C       0.30350   0.15130   0.51980 
C          C       0.84870   0.15220   0.51980 
C          C       0.84780   0.69650   0.51980 
C          C       0.18203   0.36317   0.68647 
C          C       0.18113   0.81797   0.68647 
C          C       0.63683   0.81887   0.68647 
C          C       0.97017   0.48463   0.85313 
C          C       0.51537   0.48553   0.85313 
C          C       0.51447   0.02983   0.85313 
C          C       0.84870   0.69650   0.01980 
C          C       0.84780   0.15130   0.01980 
C          C       0.30350   0.15220   0.01980 
C          C       0.63683   0.81797   0.18647 
C          C       0.18203   0.81887   0.18647 
C          C       0.18113   0.36317   0.18647 
C          C       0.51537   0.02983   0.35313 
C          C       0.51447   0.48463   0.35313 
C          C       0.97017   0.48553   0.35313 
O          O       0.13540   0.31650   0.42580 
O          O       0.68350   0.81890   0.42580 
O          O       0.18110   0.86460   0.42580 
O          O       0.01683   0.53127   0.59247 
O          O       0.51443   0.98317   0.59247 
O          O       0.46873   0.48557   0.59247 
O          O       0.80207   0.64983   0.75913 
O          O       0.35017   0.15223   0.75913 
O          O       0.84777   0.19793   0.75913 
O          O       0.68350   0.86460   0.92580 
O          O       0.18110   0.31650   0.92580 
O          O       0.13540   0.81890   0.92580 
O          O       0.46873   0.98317   0.09247 
O          O       0.01683   0.48557   0.09247 
O          O       0.51443   0.53127   0.09247 
O          O       0.35017   0.19793   0.25913 
O          O       0.84777   0.64983   0.25913 
O          O       0.80207   0.15223   0.25913 
O          O       0.16790   0.31390   0.58150 
O          O       0.68610   0.85400   0.58150 
O          O       0.14600   0.83210   0.58150 
O          O       0.01943   0.49877   0.74817 
O          O       0.47933   0.98057   0.74817 
O          O       0.50123   0.52067   0.74817 
O          O       0.83457   0.64723   0.91483 
O          O       0.35277   0.18733   0.91483 
O          O       0.81267   0.16543   0.91483 
O          O       0.68610   0.83210   0.08150 
O          O       0.14600   0.31390   0.08150 
O          O       0.16790   0.85400   0.08150 
O          O       0.50123   0.98057   0.24817 
O          O       0.01943   0.52067   0.24817 
O          O       0.47933   0.49877   0.24817 
O          O       0.35277   0.16543   0.41483 
O          O       0.81267   0.64723   0.41483 
O          O       0.83457   0.18733   0.41483 
H          H       0.17360   0.33210   0.61010 
H          H       0.66790   0.84150   0.61010 
H          H       0.15850   0.82640   0.61010 
H          H       0.00123   0.49307   0.77677 
H          H       0.49183   0.99877   0.77677 
H          H       0.50693   0.50817   0.77677 
H          H       0.84027   0.66543   0.94343 
H          H       0.33457   0.17483   0.94343 
H          H       0.82517   0.15973   0.94343 
H          H       0.66790   0.82640   0.11010 
H          H       0.15850   0.33210   0.11010 
H          H       0.17360   0.84150   0.11010 
H          H       0.50693   0.99877   0.27677 
H          H       0.00123   0.50817   0.27677 
H          H       0.49183   0.49307   0.27677 
H          H       0.33457   0.15973   0.44343 
H          H       0.82517   0.66543   0.44343 
H          H       0.84027   0.17483   0.44343 
N          N       0.02690   0.05390   0.01800 
N          N       0.94610   0.97300   0.01800 
N          N       0.02700   0.97310   0.01800 
N          N       0.27943   0.63977   0.18467 
N          N       0.36033   0.72057   0.18467 
N          N       0.36023   0.63967   0.18467 
N          N       0.69357   0.38723   0.35133 
N          N       0.61277   0.30633   0.35133 
N          N       0.69367   0.30643   0.35133 
N          N       0.94610   0.97310   0.51800 
N          N       0.02700   0.05390   0.51800 
N          N       0.02690   0.97300   0.51800 
N          N       0.36023   0.72057   0.68467 
N          N       0.27943   0.63967   0.68467 
N          N       0.36033   0.63977   0.68467 
N          N       0.61277   0.30643   0.85133 
N          N       0.69367   0.38723   0.85133 
N          N       0.69357   0.30633   0.85133 
C          C       0.01390   0.02790   0.00130 
C          C       0.97210   0.98600   0.00130 
C          C       0.01400   0.98610   0.00130 
C          C       0.30543   0.65277   0.16797 
C          C       0.34733   0.69457   0.16797 
C          C       0.34723   0.65267   0.16797 
C          C       0.68057   0.36123   0.33463 
C          C       0.63877   0.31933   0.33463 
C          C       0.68067   0.31943   0.33463 
C          C       0.97210   0.98610   0.50130 
C          C       0.01400   0.02790   0.50130 
C          C       0.01390   0.98600   0.50130 
C          C       0.34723   0.69457   0.66797 
C          C       0.30543   0.65267   0.66797 
C          C       0.34733   0.65277   0.66797 
C          C       0.63877   0.31943   0.83463 
C          C       0.68067   0.36123   0.83463 
C          C       0.68057   0.31933   0.83463 
C          C       0.05300   0.06720   0.01770 
C          C       0.93280   0.98580   0.01770 
C          C       0.01420   0.94700   0.01770 
C          C       0.26613   0.61367   0.18437 
C          C       0.34753   0.73387   0.18437 
C          C       0.38633   0.65247   0.18437 
C          C       0.71967   0.40053   0.35103 
C          C       0.59947   0.31913   0.35103 
C          C       0.68087   0.28033   0.35103 
C          C       0.93280   0.94700   0.51770 
C          C       0.01420   0.06720   0.51770 
C          C       0.05300   0.98580   0.51770 
C          C       0.38633   0.73387   0.68437 
C          C       0.26613   0.65247   0.68437 
C          C       0.34753   0.61367   0.68437 
C          C       0.59947   0.28033   0.85103 
C          C       0.68087   0.40053   0.85103 
C          C       0.71967   0.31913   0.85103 
C          C       0.06490   0.09510   0.06720 
C          C       0.90490   0.96980   0.06720 
C          C       0.03020   0.93510   0.06720 
C          C       0.23823   0.60177   0.23387 
C          C       0.36353   0.76177   0.23387 
C          C       0.39823   0.63647   0.23387 
C          C       0.73157   0.42843   0.40053 
C          C       0.57157   0.30313   0.40053 
C          C       0.69687   0.26843   0.40053 
C          C       0.90490   0.93510   0.56720 
C          C       0.03020   0.09510   0.56720 
C          C       0.06490   0.96980   0.56720 
C          C       0.39823   0.76177   0.73387 
C          C       0.23823   0.63647   0.73387 
C          C       0.36353   0.60177   0.73387 
C          C       0.57157   0.26843   0.90053 
C          C       0.69687   0.42843   0.90053 
C          C       0.73157   0.30313   0.90053 
C          C       0.08780   0.10810   0.17740 
C          C       0.89190   0.97970   0.17740 
C          C       0.02030   0.91220   0.17740 
C          C       0.22523   0.57887   0.34407 
C          C       0.35363   0.77477   0.34407 
C          C       0.42113   0.64637   0.34407 
C          C       0.75447   0.44143   0.51073 
C          C       0.55857   0.31303   0.51073 
C          C       0.68697   0.24553   0.51073 
C          C       0.89190   0.91220   0.67740 
C          C       0.02030   0.10810   0.67740 
C          C       0.08780   0.97970   0.67740 
C          C       0.42113   0.77477   0.84407 
C          C       0.22523   0.64637   0.84407 
C          C       0.35363   0.57887   0.84407 
C          C       0.55857   0.24553   0.01073 
C          C       0.68697   0.44143   0.01073 
C          C       0.75447   0.31303   0.01073 
H          H       0.09760   0.09790   0.22430 
H          H       0.90210   0.99970   0.22430 
H          H       0.00030   0.90240   0.22430 
H          H       0.23543   0.56907   0.39097 
H          H       0.33363   0.76457   0.39097 
H          H       0.43093   0.66637   0.39097 
H          H       0.76427   0.43123   0.55763 
H          H       0.56877   0.33303   0.55763 
H          H       0.66697   0.23573   0.55763 
H          H       0.90210   0.90240   0.72430 
H          H       0.00030   0.09790   0.72430 
H          H       0.09760   0.99970   0.72430 
H          H       0.43093   0.76457   0.89097 
H          H       0.23543   0.66637   0.89097 
H          H       0.33363   0.56907   0.89097 
H          H       0.56877   0.23573   0.05763 
H          H       0.66697   0.43123   0.05763 
H          H       0.76427   0.33303   0.05763 
C          C       0.09780   0.13390   0.22970 
C          C       0.86610   0.96390   0.22970 
C          C       0.03610   0.90220   0.22970 
C          C       0.19943   0.56887   0.39637 
C          C       0.36943   0.80057   0.39637 
C          C       0.43113   0.63057   0.39637 
C          C       0.76447   0.46723   0.56303 
C          C       0.53277   0.29723   0.56303 
C          C       0.70277   0.23553   0.56303 
C          C       0.86610   0.90220   0.72970 
C          C       0.03610   0.13390   0.72970 
C          C       0.09780   0.96390   0.72970 
C          C       0.43113   0.80057   0.89637 
C          C       0.19943   0.63057   0.89637 
C          C       0.36943   0.56887   0.89637 
C          C       0.53277   0.23553   0.06303 
C          C       0.70277   0.46723   0.06303 
C          C       0.76447   0.29723   0.06303 
H          H       0.11530   0.14360   0.31580 
H          H       0.85640   0.97170   0.31580 
H          H       0.02830   0.88470   0.31580 
H          H       0.18973   0.55137   0.48247 
H          H       0.36163   0.81027   0.48247 
H          H       0.44863   0.63837   0.48247 
H          H       0.78197   0.47693   0.64913 
H          H       0.52307   0.30503   0.64913 
H          H       0.69497   0.21803   0.64913 
H          H       0.85640   0.88470   0.81580 
H          H       0.02830   0.14360   0.81580 
H          H       0.11530   0.97170   0.81580 
H          H       0.44863   0.81027   0.98247 
H          H       0.18973   0.63837   0.98247 
H          H       0.36163   0.55137   0.98247 
H          H       0.52307   0.21803   0.14913 
H          H       0.69497   0.47693   0.14913 
H          H       0.78197   0.30503   0.14913 
C          C       0.08530   0.14770   0.17260 
C          C       0.85230   0.93760   0.17260 
C          C       0.06240   0.91470   0.17260 
C          C       0.18563   0.58137   0.33927 
C          C       0.39573   0.81437   0.33927 
C          C       0.41863   0.60427   0.33927 
C          C       0.75197   0.48103   0.50593 
C          C       0.51897   0.27093   0.50593 
C          C       0.72907   0.24803   0.50593 
C          C       0.85230   0.91470   0.67260 
C          C       0.06240   0.14770   0.67260 
C          C       0.08530   0.93760   0.67260 
C          C       0.41863   0.81437   0.83927 
C          C       0.18563   0.60427   0.83927 
C          C       0.39573   0.58137   0.83927 
C          C       0.51897   0.24803   0.00593 
C          C       0.72907   0.48103   0.00593 
C          C       0.75197   0.27093   0.00593 
C          C       0.06230   0.13460   0.06370 
C          C       0.86540   0.92770   0.06370 
C          C       0.07230   0.93770   0.06370 
C          C       0.19873   0.60437   0.23037 
C          C       0.40563   0.80127   0.23037 
C          C       0.39563   0.59437   0.23037 
C          C       0.72897   0.46793   0.39703 
C          C       0.53207   0.26103   0.39703 
C          C       0.73897   0.27103   0.39703 
C          C       0.86540   0.93770   0.56370 
C          C       0.07230   0.13460   0.56370 
C          C       0.06230   0.92770   0.56370 
C          C       0.39563   0.80127   0.73037 
C          C       0.19873   0.59437   0.73037 
C          C       0.40563   0.60437   0.73037 
C          C       0.53207   0.27103   0.89703 
C          C       0.73897   0.46793   0.89703 
C          C       0.72897   0.26103   0.89703 
H          H       0.05240   0.14490   0.01990 
H          H       0.85510   0.90750   0.01990 
H          H       0.09250   0.94760   0.01990 
H          H       0.18843   0.61427   0.18657 
H          H       0.42583   0.81157   0.18657 
H          H       0.38573   0.57417   0.18657 
H          H       0.71907   0.47823   0.35323 
H          H       0.52177   0.24083   0.35323 
H          H       0.75917   0.28093   0.35323 
H          H       0.85510   0.94760   0.51990 
H          H       0.09250   0.14490   0.51990 
H          H       0.05240   0.90750   0.51990 
H          H       0.38573   0.81157   0.68657 
H          H       0.18843   0.57417   0.68657 
H          H       0.42583   0.61427   0.68657 
H          H       0.52177   0.28093   0.85323 
H          H       0.75917   0.47823   0.85323 
H          H       0.71907   0.24083   0.85323 
C          C       0.05220   0.10870   0.01360 
C          C       0.89130   0.94350   0.01360 
C          C       0.05650   0.94780   0.01360 
C          C       0.22463   0.61447   0.18027 
C          C       0.38983   0.77537   0.18027 
C          C       0.38553   0.61017   0.18027 
C          C       0.71887   0.44203   0.34693 
C          C       0.55797   0.27683   0.34693 
C          C       0.72317   0.28113   0.34693 
C          C       0.89130   0.94780   0.51360 
C          C       0.05650   0.10870   0.51360 
C          C       0.05220   0.94350   0.51360 
C          C       0.38553   0.77537   0.68027 
C          C       0.22463   0.61017   0.68027 
C          C       0.38983   0.61447   0.68027 
C          C       0.55797   0.28113   0.84693 
C          C       0.72317   0.44203   0.84693 
C          C       0.71887   0.27683   0.84693 
H          H       0.03420   0.09850   0.93340 
H          H       0.90150   0.93570   0.93340 
H          H       0.06430   0.96580   0.93340 
H          H       0.23483   0.63247   0.10007 
H          H       0.39763   0.76517   0.10007 
H          H       0.36753   0.60237   0.10007 
H          H       0.70087   0.43183   0.26673 
H          H       0.56817   0.26903   0.26673 
H          H       0.73097   0.29913   0.26673 
H          H       0.90150   0.96580   0.43340 
H          H       0.06430   0.09850   0.43340 
H          H       0.03420   0.93570   0.43340 
H          H       0.36753   0.76517   0.60007 
H          H       0.23483   0.60237   0.60007 
H          H       0.39763   0.63247   0.60007 
H          H       0.56817   0.29913   0.76673 
H          H       0.73097   0.43183   0.76673 
H          H       0.70087   0.26903   0.76673 
C          C       0.09570   0.17420   0.22450 
C          C       0.82580   0.92150   0.22450 
C          C       0.07850   0.90430   0.22450 
C          C       0.15913   0.57097   0.39117 
C          C       0.41183   0.84087   0.39117 
C          C       0.42903   0.58817   0.39117 
C          C       0.76237   0.50753   0.55783 
C          C       0.49247   0.25483   0.55783 
C          C       0.74517   0.23763   0.55783 
C          C       0.82580   0.90430   0.72450 
C          C       0.07850   0.17420   0.72450 
C          C       0.09570   0.92150   0.72450 
C          C       0.42903   0.84087   0.89117 
C          C       0.15913   0.58817   0.89117 
C          C       0.41183   0.57097   0.89117 
C          C       0.49247   0.23763   0.05783 
C          C       0.74517   0.50753   0.05783 
C          C       0.76237   0.25483   0.05783 
C          C       0.10460   0.19700   0.26880 
C          C       0.80300   0.90760   0.26880 
C          C       0.09240   0.89540   0.26880 
C          C       0.13633   0.56207   0.43547 
C          C       0.42573   0.86367   0.43547 
C          C       0.43793   0.57427   0.43547 
C          C       0.77127   0.53033   0.60213 
C          C       0.46967   0.24093   0.60213 
C          C       0.75907   0.22873   0.60213 
C          C       0.80300   0.89540   0.76880 
C          C       0.09240   0.19700   0.76880 
C          C       0.10460   0.90760   0.76880 
C          C       0.43793   0.86367   0.93547 
C          C       0.13633   0.57427   0.93547 
C          C       0.42573   0.56207   0.93547 
C          C       0.46967   0.22873   0.10213 
C          C       0.75907   0.53033   0.10213 
C          C       0.77127   0.24093   0.10213 
C          C       0.11490   0.22350   0.32050 
C          C       0.77650   0.89140   0.32050 
C          C       0.10860   0.88510   0.32050 
C          C       0.10983   0.55177   0.48717 
C          C       0.44193   0.89017   0.48717 
C          C       0.44823   0.55807   0.48717 
C          C       0.78157   0.55683   0.65383 
C          C       0.44317   0.22473   0.65383 
C          C       0.77527   0.21843   0.65383 
C          C       0.77650   0.88510   0.82050 
C          C       0.10860   0.22350   0.82050 
C          C       0.11490   0.89140   0.82050 
C          C       0.44823   0.89017   0.98717 
C          C       0.10983   0.55807   0.98717 
C          C       0.44193   0.55177   0.98717 
C          C       0.44317   0.21843   0.15383 
C          C       0.77527   0.55683   0.15383 
C          C       0.78157   0.22473   0.15383 
C          C       0.10250   0.23730   0.26160 
C          C       0.76270   0.86520   0.26160 
C          C       0.13480   0.89750   0.26160 
C          C       0.09603   0.56417   0.42827 
C          C       0.46813   0.90397   0.42827 
C          C       0.43583   0.53187   0.42827 
C          C       0.76917   0.57063   0.59493 
C          C       0.42937   0.19853   0.59493 
C          C       0.80147   0.23083   0.59493 
C          C       0.76270   0.89750   0.76160 
C          C       0.13480   0.23730   0.76160 
C          C       0.10250   0.86520   0.76160 
C          C       0.43583   0.90397   0.92827 
C          C       0.09603   0.53187   0.92827 
C          C       0.46813   0.56417   0.92827 
C          C       0.42937   0.23083   0.09493 
C          C       0.80147   0.57063   0.09493 
C          C       0.76917   0.19853   0.09493 
H          H       0.08490   0.22750   0.17640 
H          H       0.77250   0.85740   0.17640 
H          H       0.14260   0.91510   0.17640 
H          H       0.10583   0.58177   0.34307 
H          H       0.47593   0.89417   0.34307 
H          H       0.41823   0.52407   0.34307 
H          H       0.75157   0.56083   0.50973 
H          H       0.43917   0.19073   0.50973 
H          H       0.80927   0.24843   0.50973 
H          H       0.77250   0.91510   0.67640 
H          H       0.14260   0.22750   0.67640 
H          H       0.08490   0.85740   0.67640 
H          H       0.41823   0.89417   0.84307 
H          H       0.10583   0.52407   0.84307 
H          H       0.47593   0.58177   0.84307 
H          H       0.43917   0.24843   0.00973 
H          H       0.80927   0.56083   0.00973 
H          H       0.75157   0.19073   0.00973 
C          C       0.11260   0.26320   0.31230 
C          C       0.73680   0.84940   0.31230 
C          C       0.15060   0.88740   0.31230 
C          C       0.07013   0.55407   0.47897 
C          C       0.48393   0.92987   0.47897 
C          C       0.44593   0.51607   0.47897 
C          C       0.77927   0.59653   0.64563 
C          C       0.40347   0.18273   0.64563 
C          C       0.81727   0.22073   0.64563 
C          C       0.73680   0.88740   0.81230 
C          C       0.15060   0.26320   0.81230 
C          C       0.11260   0.84940   0.81230 
C          C       0.44593   0.92987   0.97897 
C          C       0.07013   0.51607   0.97897 
C          C       0.48393   0.55407   0.97897 
C          C       0.40347   0.22073   0.14563 
C          C       0.81727   0.59653   0.14563 
C          C       0.77927   0.18273   0.14563 
H          H       0.10320   0.27390   0.26780 
H          H       0.72610   0.82930   0.26780 
H          H       0.17070   0.89680   0.26780 
H          H       0.05943   0.56347   0.43447 
H          H       0.50403   0.94057   0.43447 
H          H       0.43653   0.49597   0.43447 
H          H       0.76987   0.60723   0.60113 
H          H       0.39277   0.16263   0.60113 
H          H       0.83737   0.23013   0.60113 
H          H       0.72610   0.89680   0.76780 
H          H       0.17070   0.27390   0.76780 
H          H       0.10320   0.82930   0.76780 
H          H       0.43653   0.94057   0.93447 
H          H       0.05943   0.49597   0.93447 
H          H       0.50403   0.56347   0.93447 
H          H       0.39277   0.23013   0.10113 
H          H       0.83737   0.60723   0.10113 
H          H       0.76987   0.16263   0.10113 
C          C       0.13540   0.27590   0.42280 
C          C       0.72410   0.85950   0.42280 
C          C       0.14050   0.86460   0.42280 
C          C       0.05743   0.53127   0.58947 
C          C       0.47383   0.94257   0.58947 
C          C       0.46873   0.52617   0.58947 
C          C       0.80207   0.60923   0.75613 
C          C       0.39077   0.19283   0.75613 
C          C       0.80717   0.19793   0.75613 
C          C       0.72410   0.86460   0.92280 
C          C       0.14050   0.27590   0.92280 
C          C       0.13540   0.85950   0.92280 
C          C       0.46873   0.94257   0.08947 
C          C       0.05743   0.52617   0.08947 
C          C       0.47383   0.53127   0.08947 
C          C       0.39077   0.19793   0.25613 
C          C       0.80717   0.60923   0.25613 
C          C       0.80207   0.19283   0.25613 
C          C       0.14790   0.26240   0.48210 
C          C       0.73760   0.88550   0.48210 
C          C       0.11450   0.85210   0.48210 
C          C       0.07093   0.51877   0.64877 
C          C       0.44783   0.92907   0.64877 
C          C       0.48123   0.55217   0.64877 
C          C       0.81457   0.59573   0.81543 
C          C       0.40427   0.21883   0.81543 
C          C       0.78117   0.18543   0.81543 
C          C       0.73760   0.85210   0.98210 
C          C       0.11450   0.26240   0.98210 
C          C       0.14790   0.88550   0.98210 
C          C       0.48123   0.92907   0.14877 
C          C       0.07093   0.55217   0.14877 
C          C       0.44783   0.51877   0.14877 
C          C       0.40427   0.18543   0.31543 
C          C       0.78117   0.59573   0.31543 
C          C       0.81457   0.21883   0.31543 
H          H       0.16550   0.27230   0.56710 
H          H       0.72770   0.89320   0.56710 
H          H       0.10680   0.83450   0.56710 
H          H       0.06103   0.50117   0.73377 
H          H       0.44013   0.93897   0.73377 
H          H       0.49883   0.55987   0.73377 
H          H       0.83217   0.60563   0.90043 
H          H       0.39437   0.22653   0.90043 
H          H       0.77347   0.16783   0.90043 
H          H       0.72770   0.83450   0.06710 
H          H       0.10680   0.27230   0.06710 
H          H       0.16550   0.89320   0.06710 
H          H       0.49883   0.93897   0.23377 
H          H       0.06103   0.55987   0.23377 
H          H       0.44013   0.50117   0.23377 
H          H       0.39437   0.16783   0.40043 
H          H       0.77347   0.60563   0.40043 
H          H       0.83217   0.22653   0.40043 
C          C       0.13780   0.23650   0.43160 
C          C       0.76350   0.90130   0.43160 
C          C       0.09870   0.86220   0.43160 
C          C       0.09683   0.52887   0.59827 
C          C       0.43203   0.90317   0.59827 
C          C       0.47113   0.56797   0.59827 
C          C       0.80447   0.56983   0.76493 
C          C       0.43017   0.23463   0.76493 
C          C       0.76537   0.19553   0.76493 
C          C       0.76350   0.86220   0.93160 
C          C       0.09870   0.23650   0.93160 
C          C       0.13780   0.90130   0.93160 
C          C       0.47113   0.90317   0.09827 
C          C       0.09683   0.56797   0.09827 
C          C       0.43203   0.52887   0.09827 
C          C       0.43017   0.19553   0.26493 
C          C       0.76537   0.56983   0.26493 
C          C       0.80447   0.23463   0.26493 
H          H       0.14750   0.22600   0.47710 
H          H       0.77400   0.92150   0.47710 
H          H       0.07850   0.85250   0.47710 
H          H       0.10733   0.51917   0.64377 
H          H       0.41183   0.89267   0.64377 
H          H       0.48083   0.58817   0.64377 
H          H       0.81417   0.55933   0.81043 
H          H       0.44067   0.25483   0.81043 
H          H       0.74517   0.18583   0.81043 
H          H       0.77400   0.85250   0.97710 
H          H       0.07850   0.22600   0.97710 
H          H       0.14750   0.92150   0.97710 
H          H       0.48083   0.89267   0.14377 
H          H       0.10733   0.58817   0.14377 
H          H       0.41183   0.51917   0.14377 
H          H       0.44067   0.18583   0.31043 
H          H       0.74517   0.55933   0.31043 
H          H       0.81417   0.25483   0.31043 
C          C       0.14540   0.30340   0.47280 
C          C       0.69660   0.84200   0.47280 
C          C       0.15800   0.85460   0.47280 
C          C       0.02993   0.52127   0.63947 
C          C       0.49133   0.97007   0.63947 
C          C       0.47873   0.50867   0.63947 
C          C       0.81207   0.63673   0.80613 
C          C       0.36327   0.17533   0.80613 
C          C       0.82467   0.18793   0.80613 
C          C       0.69660   0.85460   0.97280 
C          C       0.15800   0.30340   0.97280 
C          C       0.14540   0.84200   0.97280 
C          C       0.47873   0.97007   0.13947 
C          C       0.02993   0.50867   0.13947 
C          C       0.49133   0.52127   0.13947 
C          C       0.36327   0.18793   0.30613 
C          C       0.82467   0.63673   0.30613 
C          C       0.81207   0.17533   0.30613 
