data_crystal

_cell_length_a    24.58640
_cell_length_b    24.58640
_cell_length_c    6.91800
_cell_angle_alpha 90.00000
_cell_angle_beta  90.00000
_cell_angle_gamma 120.00000

_space_group_name_Hall 'P 1'
_space_group_name_H-M_alt 'P 1'

loop_
_symmetry_equiv_pos_as_xyz
 'x,y,z'

loop_
_atom_site_label
_atom_site_type_symbol
_atom_site_fract_x
_atom_site_fract_y
_atom_site_fract_z
C          C       0.36454   0.03861   0.32952
C          C       0.96139   0.32593   0.32952
C          C       0.67407   0.63546   0.32952
C          C       0.63546   0.96139   0.32952
C          C       0.03861   0.67407   0.32952
C          C       0.32593   0.36454   0.32952
C          C       0.31597   0.06053   0.30080
C          C       0.93947   0.25544   0.30080
C          C       0.74456   0.68403   0.30080
C          C       0.68403   0.93947   0.30080
C          C       0.06053   0.74456   0.30080
C          C       0.25544   0.31597   0.30080
C          C       0.43326   0.09263   0.31899
C          C       0.90737   0.34063   0.31899
C          C       0.65937   0.56674   0.31899
C          C       0.56674   0.90737   0.31899
C          C       0.09263   0.65937   0.31899
C          C       0.34063   0.43326   0.31899
O          O       0.32459   0.10584   0.42222
O          O       0.89416   0.21875   0.42222
O          O       0.78125   0.67541   0.42222
O          O       0.67541   0.89416   0.42222
O          O       0.10584   0.78125   0.42222
O          O       0.21875   0.32459   0.42222
C          C       0.60216   0.32337   0.14538
C          C       0.67663   0.27879   0.14538
C          C       0.72121   0.39784   0.14538
C          C       0.39784   0.67663   0.14538
C          C       0.32337   0.72121   0.14538
C          C       0.27879   0.60216   0.14538
C          C       0.61264   0.26922   0.20611
C          C       0.73078   0.34342   0.20611
C          C       0.65658   0.38736   0.20611
C          C       0.38736   0.73078   0.20611
C          C       0.26922   0.65658   0.20611
C          C       0.34342   0.61264   0.20611
C          C       0.55777   0.20553   0.14627
C          C       0.79447   0.35224   0.14627
C          C       0.64776   0.44223   0.14627
C          C       0.44223   0.79447   0.14627
C          C       0.20553   0.64776   0.14627
C          C       0.35224   0.55777   0.14627
C          C       0.49584   0.19605   0.22103
C          C       0.80395   0.29979   0.22103
C          C       0.70021   0.50416   0.22103
C          C       0.50416   0.80395   0.22103
C          C       0.19605   0.70021   0.22103
C          C       0.29979   0.49584   0.22103
C          C       0.48358   0.24864   0.15974
C          C       0.75136   0.23494   0.15974
C          C       0.76506   0.51642   0.15974
C          C       0.51642   0.75136   0.15974
C          C       0.24864   0.76506   0.15974
C          C       0.23494   0.48358   0.15974
C          C       0.53891   0.31300   0.21517
C          C       0.68700   0.22591   0.21517
C          C       0.77409   0.46109   0.21517
C          C       0.46109   0.68700   0.21517
C          C       0.31300   0.77409   0.21517
C          C       0.22591   0.53891   0.21517
N          N       0.42474   0.23969   0.23314
N          N       0.76031   0.18505   0.23314
N          N       0.81495   0.57526   0.23314
N          N       0.57526   0.76031   0.23314
N          N       0.23969   0.81495   0.23314
N          N       0.18505   0.42474   0.23314
N          N       0.44364   0.13384   0.17502
N          N       0.86616   0.30980   0.17502
N          N       0.69020   0.55636   0.17502
N          N       0.55636   0.86616   0.17502
N          N       0.13384   0.69020   0.17502
N          N       0.30980   0.44364   0.17502
O          O       0.27860   0.17653   0.22073
O          O       0.82347   0.10207   0.22073
O          O       0.89793   0.72140   0.22073
O          O       0.72140   0.82347   0.22073
O          O       0.17653   0.89793   0.22073
O          O       0.10207   0.27860   0.22073
C          C       0.59577   0.72305   0.13569
C          C       0.27695   0.87272   0.13569
C          C       0.12728   0.40423   0.13569
C          C       0.40423   0.27695   0.13569
C          C       0.72305   0.12728   0.13569
C          C       0.87272   0.59577   0.13569
C          C       0.71135   0.76219   0.19734
C          C       0.23781   0.94916   0.19734
C          C       0.05084   0.28865   0.19734
C          C       0.28865   0.23781   0.19734
C          C       0.76219   0.05084   0.19734
C          C       0.94916   0.71135   0.19734
C          C       0.64250   0.71322   0.23989
C          C       0.28678   0.92928   0.23989
C          C       0.07072   0.35750   0.23989
C          C       0.35750   0.28678   0.23989
C          C       0.71322   0.07072   0.23989
C          C       0.92928   0.64250   0.23989
C          C       0.75700   0.75240   0.31022
C          C       0.24760   0.00460   0.31022
C          C       0.99540   0.24300   0.31022
C          C       0.24300   0.24760   0.31022
C          C       0.75240   0.99540   0.31022
C          C       0.00460   0.75700   0.31022
C          C       0.63148   0.64668   0.21080
C          C       0.35332   0.98480   0.21080
C          C       0.01520   0.36852   0.21080
C          C       0.36852   0.35332   0.21080
C          C       0.64668   0.01520   0.21080
C          C       0.98480   0.63148   0.21080
C          C       0.17480   0.20150   0.25918
C          C       0.79850   0.97330   0.25918
C          C       0.02670   0.82520   0.25918
C          C       0.82520   0.79850   0.25918
C          C       0.20150   0.02670   0.25918
C          C       0.97330   0.17480   0.25918
H          H       0.41675   0.38709   0.25034
H          H       0.22438   0.36711   0.40243
H          H       0.28864   0.17094   0.35573
H          H       0.53121   0.34920   0.15227
H          H       0.56531   0.16862   0.20407
H          H       0.60331   0.43469   0.20407
H          H       0.81799   0.46879   0.15227
H          H       0.65080   0.18201   0.15227
H          H       0.83138   0.39669   0.20407
H          H       0.85727   0.22438   0.40243
H          H       0.82906   0.11771   0.35573
H          H       0.77562   0.63289   0.40243
H          H       0.88229   0.71135   0.35573
H          H       0.71135   0.82906   0.35573
H          H       0.63289   0.85727   0.40243
H          H       0.58325   0.61291   0.25034
H          H       0.46879   0.65080   0.15227
H          H       0.43469   0.83138   0.20407
H          H       0.18201   0.53121   0.15227
H          H       0.39669   0.56531   0.20407
H          H       0.16862   0.60331   0.20407
H          H       0.34920   0.81799   0.15227
H          H       0.17094   0.88229   0.35573
H          H       0.14273   0.77562   0.40243
H          H       0.11771   0.28864   0.35573
H          H       0.36711   0.14273   0.40243
H          H       0.83497   0.78890   0.11349
H          H       0.83339   0.84627   0.26624
H          H       0.85599   0.79328   0.36132
H          H       0.78890   0.95393   0.11349
H          H       0.84627   1.01288   0.26624
H          H       0.79328   0.93729   0.36132
H          H       0.04607   0.83497   0.11349
H          H      -0.01288   0.83339   0.26624
H          H       0.06271   0.85599   0.36132
H          H       0.16503   0.21110   0.11349
H          H       0.16661   0.15373   0.26624
H          H       0.14401   0.20672   0.36132
H          H       0.21110   0.04607   0.11349
H          H       0.15373  -0.01288   0.26624
H          H       0.20672   0.06271   0.36132
H          H       0.95393   0.16503   0.11349
H          H       1.01288   0.16661   0.26624
H          H       0.93729   0.14401   0.36132
H          H       0.75985   0.00746   0.46311
H          H       0.99254   0.75239   0.46311
H          H       0.00746   0.24761   0.46311
H          H      -0.00326   0.64200   0.05859
H          H      -0.02736   0.58317   0.24009
H          H       0.24015   0.99254   0.46311
H          H       0.57819   0.70302  -0.00663
H          H       0.53657   0.92747   0.29619
H          H       0.29698   0.87517  -0.00663
H          H       0.07253   0.60910   0.29619
H          H       0.12483   0.42181  -0.00663
H          H       0.39090   0.46343   0.29619
H          H       0.42181   0.29698  -0.00663
H          H       0.46343   0.07253   0.29619
H          H       0.92747   0.39090   0.29619
H          H       0.70302   0.12483  -0.00663
C          C       0.36454   0.03861   0.82952
C          C       0.96139   0.32593   0.82952
C          C       0.67407   0.63546   0.82952
C          C       0.63546   0.96139   0.82952
C          C       0.03861   0.67407   0.82952
C          C       0.32593   0.36454   0.82952
C          C       0.31597   0.06053   0.80080
C          C       0.93947   0.25544   0.80080
C          C       0.74456   0.68403   0.80080
C          C       0.68403   0.93947   0.80080
C          C       0.06053   0.74456   0.80080
C          C       0.25544   0.31597   0.80080
C          C       0.43326   0.09263   0.81899
C          C       0.90737   0.34063   0.81899
C          C       0.65937   0.56674   0.81899
C          C       0.56674   0.90737   0.81899
C          C       0.09263   0.65937   0.81899
C          C       0.34063   0.43326   0.81899
O          O       0.32459   0.10584   0.92222
O          O       0.89416   0.21875   0.92222
O          O       0.78125   0.67541   0.92222
O          O       0.67541   0.89416   0.92222
O          O       0.10584   0.78125   0.92222
O          O       0.21875   0.32459   0.92222
C          C       0.60216   0.32337   0.64538
C          C       0.67663   0.27879   0.64538
C          C       0.72121   0.39784   0.64538
C          C       0.39784   0.67663   0.64538
C          C       0.32337   0.72121   0.64538
C          C       0.27879   0.60216   0.64538
C          C       0.61264   0.26922   0.70610
C          C       0.73078   0.34342   0.70610
C          C       0.65658   0.38736   0.70610
C          C       0.38736   0.73078   0.70610
C          C       0.26922   0.65658   0.70610
C          C       0.34342   0.61264   0.70610
C          C       0.55777   0.20553   0.64627
C          C       0.79447   0.35224   0.64627
C          C       0.64776   0.44223   0.64627
C          C       0.44223   0.79447   0.64627
C          C       0.20553   0.64776   0.64627
C          C       0.35224   0.55777   0.64627
C          C       0.49584   0.19605   0.72103
C          C       0.80395   0.29979   0.72103
C          C       0.70021   0.50416   0.72103
C          C       0.50416   0.80395   0.72103
C          C       0.19605   0.70021   0.72103
C          C       0.29979   0.49584   0.72103
C          C       0.48358   0.24864   0.65974
C          C       0.75136   0.23494   0.65974
C          C       0.76506   0.51642   0.65974
C          C       0.51642   0.75136   0.65974
C          C       0.24864   0.76506   0.65974
C          C       0.23494   0.48358   0.65974
C          C       0.53891   0.31300   0.71517
C          C       0.68700   0.22591   0.71517
C          C       0.77409   0.46109   0.71517
C          C       0.46109   0.68700   0.71517
C          C       0.31300   0.77409   0.71517
C          C       0.22591   0.53891   0.71517
N          N       0.42474   0.23969   0.73314
N          N       0.76031   0.18505   0.73314
N          N       0.81495   0.57526   0.73314
N          N       0.57526   0.76031   0.73314
N          N       0.23969   0.81495   0.73314
N          N       0.18505   0.42474   0.73314
N          N       0.44364   0.13384   0.67502
N          N       0.86616   0.30980   0.67502
N          N       0.69020   0.55636   0.67502
N          N       0.55636   0.86616   0.67502
N          N       0.13384   0.69020   0.67502
N          N       0.30980   0.44364   0.67502
O          O       0.27860   0.17653   0.72073
O          O       0.82347   0.10207   0.72073
O          O       0.89793   0.72140   0.72073
O          O       0.72140   0.82347   0.72073
O          O       0.17653   0.89793   0.72073
O          O       0.10207   0.27860   0.72073
C          C       0.59577   0.72305   0.63568
C          C       0.27695   0.87272   0.63568
C          C       0.12728   0.40423   0.63568
C          C       0.40423   0.27695   0.63568
C          C       0.72305   0.12728   0.63568
C          C       0.87272   0.59577   0.63568
C          C       0.71135   0.76219   0.69734
C          C       0.23781   0.94916   0.69734
C          C       0.05084   0.28865   0.69734
C          C       0.28865   0.23781   0.69734
C          C       0.76219   0.05084   0.69734
C          C       0.94916   0.71135   0.69734
C          C       0.64250   0.71322   0.73989
C          C       0.28678   0.92928   0.73989
C          C       0.07072   0.35750   0.73989
C          C       0.35750   0.28678   0.73989
C          C       0.71322   0.07072   0.73989
C          C       0.92928   0.64250   0.73989
C          C       0.75700   0.75240   0.81022
C          C       0.24760   0.00460   0.81022
C          C       0.99540   0.24300   0.81022
C          C       0.24300   0.24760   0.81022
C          C       0.75240   0.99540   0.81022
C          C       0.00460   0.75700   0.81022
C          C       0.63148   0.64668   0.71080
C          C       0.35332   0.98480   0.71080
C          C       0.01520   0.36852   0.71080
C          C       0.36852   0.35332   0.71080
C          C       0.64668   0.01520   0.71080
C          C       0.98480   0.63148   0.71080
C          C       0.17480   0.20150   0.75918
C          C       0.79850   0.97330   0.75918
C          C       0.02670   0.82520   0.75918
C          C       0.82520   0.79850   0.75918
C          C       0.20150   0.02670   0.75918
C          C       0.97330   0.17480   0.75918
H          H       0.18201   0.53121   0.65227
H          H       0.39669   0.56531   0.70408
H          H       0.16862   0.60331   0.70408
H          H       0.34920   0.81799   0.65227
H          H       0.43469   0.83138   0.70408
H          H       0.46879   0.65080   0.65227
H          H       0.41675   0.38709   0.75034
H          H       0.22438   0.36711   0.90243
H          H       0.11771   0.28864   0.85573
H          H       0.28864   0.17094   0.85573
H          H       0.36711   0.14273   0.90243
H          H       0.53121   0.34920   0.65227
H          H       0.56531   0.16862   0.70408
H          H       0.60331   0.43469   0.70408
H          H       0.81799   0.46879   0.65227
H          H       0.83138   0.39669   0.70408
H          H       0.65080   0.18201   0.65227
H          H       0.58325   0.61291   0.75034
H          H       0.71135   0.82906   0.85573
H          H       0.77562   0.63289   0.90243
H          H       0.88229   0.71135   0.85573
H          H       0.14273   0.77562   0.90243
H          H       0.17094   0.88229   0.85573
H          H       0.82906   0.11771   0.85573
H          H       0.85727   0.22438   0.90243
H          H       0.63289   0.85727   0.90243
H          H       0.83497   0.78890   0.61349
H          H       0.83339   0.84627   0.76624
H          H       0.85599   0.79328   0.86132
H          H       0.78890   0.95393   0.61349
H          H       0.84627   1.01288   0.76624
H          H       0.79328   0.93729   0.86132
H          H       0.04607   0.83497   0.61349
H          H      -0.01288   0.83339   0.76624
H          H       0.06271   0.85599   0.86132
H          H       0.16503   0.21110   0.61349
H          H       0.16661   0.15373   0.76624
H          H       0.14401   0.20672   0.86132
H          H       0.21110   0.04607   0.61349
H          H       0.15373  -0.01288   0.76624
H          H       0.20672   0.06271   0.86132
H          H       0.95393   0.16503   0.61349
H          H       1.01288   0.16661   0.76624
H          H       0.93729   0.14401   0.86132
H          H       0.75985   0.00746   0.96311
H          H       0.99254   0.75239   0.96311
H          H       0.00746   0.24761   0.96311
H          H      -0.00326   0.64200   0.55859
H          H      -0.02736   0.58317   0.74009
H          H       0.24015   0.99254   0.96311
H          H       0.57819   0.70302   0.49335
H          H       0.53657   0.92747   0.79619
H          H       0.29698   0.87517   0.49335
H          H       0.07253   0.60910   0.79619
H          H       0.12483   0.42181   0.49335
H          H       0.39090   0.46343   0.79619
H          H       0.42181   0.29698   0.49335
H          H       0.46343   0.07253   0.79619
H          H       0.92747   0.39090   0.79619
H          H       0.70302   0.12483   0.49335
