data_crystal

_cell_length_a    56.14550
_cell_length_b    56.14550
_cell_length_c    50.84210
_cell_angle_alpha 90.00000
_cell_angle_beta  90.00000
_cell_angle_gamma 120.00000

_space_group_name_Hall 'P 1'
_space_group_name_H-M_alt 'P 1'

loop_
_symmetry_equiv_pos_as_xyz
 'x,y,z'

loop_
_atom_site_label
_atom_site_type_symbol
_atom_site_fract_x
_atom_site_fract_y
_atom_site_fract_z
C          C       0.33374   0.62027   0.46934
C          C       0.37973   0.71347   0.46934
C          C       0.28653   0.66626   0.46934
C          C       0.62027   0.33374   0.53066
C          C       0.71347   0.37973   0.53066
C          C       0.66626   0.28653   0.53066
C          C       0.00041   0.95360   0.80267
C          C       0.04640   0.04680   0.80267
C          C       0.95320   0.99959   0.80267
C          C       0.28694   0.66707   0.86399
C          C       0.38014   0.71306   0.86399
C          C       0.33293   0.61986   0.86399
C          C       0.66707   0.28694   0.13601
C          C       0.71306   0.38014   0.13601
C          C       0.61986   0.33293   0.13601
C          C       0.95360   0.00041   0.19733
C          C       0.04680   0.04640   0.19733
C          C       0.99959   0.95320   0.19733
C          C       0.33460   0.59873   0.45586
C          C       0.40127   0.73587   0.45586
C          C       0.26413   0.66540   0.45586
C          C       0.59873   0.33460   0.54414
C          C       0.73587   0.40127   0.54414
C          C       0.66540   0.26413   0.54414
C          C       0.00127   0.93206   0.78919
C          C       0.06794   0.06920   0.78919
C          C       0.93080   0.99873   0.78919
C          C       0.26540   0.66793   0.87747
C          C       0.40254   0.73460   0.87747
C          C       0.33207   0.59746   0.87747
C          C       0.66793   0.26540   0.12253
C          C       0.73460   0.40254   0.12253
C          C       0.59746   0.33207   0.12253
C          C       0.93206   0.00127   0.21081
C          C       0.06920   0.06794   0.21081
C          C       0.99873   0.93080   0.21081
C          C       0.33366   0.64165   0.45541
C          C       0.35835   0.69201   0.45541
C          C       0.30799   0.66634   0.45541
C          C       0.64165   0.33366   0.54459
C          C       0.69201   0.35835   0.54459
C          C       0.66634   0.30799   0.54459
C          C       0.00033   0.97498   0.78874
C          C       0.02502   0.02534   0.78874
C          C       0.97466   0.99967   0.78874
C          C       0.30832   0.66699   0.87792
C          C       0.35868   0.69168   0.87792
C          C       0.33301   0.64132   0.87792
C          C       0.66699   0.30832   0.12208
C          C       0.69168   0.35868   0.12208
C          C       0.64132   0.33301   0.12208
C          C       0.97498   0.00033   0.21126
C          C       0.02534   0.02502   0.21126
C          C       0.99967   0.97466   0.21126
C          C       0.35740   0.57147   0.47063
C          C       0.42853   0.78593   0.47063
C          C       0.21407   0.64260   0.47063
C          C       0.57147   0.35740   0.52937
C          C       0.78593   0.42853   0.52937
C          C       0.64260   0.21407   0.52937
C          C       0.02407   0.90480   0.80396
C          C       0.09520   0.11926   0.80396
C          C       0.88074   0.97593   0.80396
C          C       0.23814   0.69073   0.86270
C          C       0.45260   0.76186   0.86270
C          C       0.30927   0.54740   0.86270
C          C       0.69073   0.23814   0.13730
C          C       0.76186   0.45260   0.13730
C          C       0.54740   0.30927   0.13730
C          C       0.90480   0.02407   0.19604
C          C       0.11926   0.09520   0.19604
C          C       0.97593   0.88074   0.19604
C          C       0.35775   0.55114   0.48612
C          C       0.44886   0.80661   0.48612
C          C       0.19339   0.64225   0.48612
C          C       0.55114   0.35775   0.51388
C          C       0.80661   0.44886   0.51388
C          C       0.64225   0.19339   0.51388
C          C       0.02442   0.88447   0.81945
C          C       0.11553   0.13994   0.81945
C          C       0.86006   0.97558   0.81945
C          C       0.21781   0.69108   0.84721
C          C       0.47328   0.78219   0.84721
C          C       0.30892   0.52672   0.84721
C          C       0.69108   0.21781   0.15279
C          C       0.78219   0.47328   0.15279
C          C       0.52672   0.30892   0.15279
C          C       0.88447   0.02442   0.18055
C          C       0.13994   0.11553   0.18055
C          C       0.97558   0.86006   0.18055
C          C       0.33600   0.53507   0.50360
C          C       0.46493   0.80093   0.50360
C          C       0.19907   0.66400   0.50360
C          C       0.53507   0.33600   0.49640
C          C       0.80093   0.46493   0.49640
C          C       0.66400   0.19907   0.49640
C          C       0.00267   0.86840   0.83693
C          C       0.13160   0.13426   0.83693
C          C       0.86574   0.99733   0.83693
C          C       0.20174   0.66933   0.82973
C          C       0.46760   0.79826   0.82973
C          C       0.33067   0.53240   0.82973
C          C       0.66933   0.20174   0.17027
C          C       0.79826   0.46760   0.17027
C          C       0.53240   0.33067   0.17027
C          C       0.86840   0.00267   0.16307
C          C       0.13426   0.13160   0.16307
C          C       0.99733   0.86574   0.16307
C          C       0.31382   0.54018   0.50497
C          C       0.45982   0.77364   0.50497
C          C       0.22636   0.68618   0.50497
C          C       0.54018   0.31382   0.49503
C          C       0.77364   0.45982   0.49503
C          C       0.68618   0.22636   0.49503
C          C       0.98049   0.87351   0.83830
C          C       0.12649   0.10697   0.83830
C          C       0.89303   0.01951   0.83830
C          C       0.20685   0.64715   0.82836
C          C       0.44031   0.79315   0.82836
C          C       0.35285   0.55969   0.82836
C          C       0.64715   0.20685   0.17164
C          C       0.79315   0.44031   0.17164
C          C       0.55969   0.35285   0.17164
C          C       0.87351   0.98049   0.16170
C          C       0.10697   0.12649   0.16170
C          C       0.01951   0.89303   0.16170
C          C       0.31353   0.56058   0.48960
C          C       0.43942   0.75295   0.48960
C          C       0.24705   0.68647   0.48960
C          C       0.56058   0.31353   0.51040
C          C       0.75295   0.43942   0.51040
C          C       0.68647   0.24705   0.51040
C          C       0.98020   0.89391   0.82293
C          C       0.10609   0.08628   0.82293
C          C       0.91372   0.01980   0.82293
C          C       0.22725   0.64686   0.84373
C          C       0.41962   0.77275   0.84373
C          C       0.35314   0.58038   0.84373
C          C       0.64686   0.22725   0.15627
C          C       0.77275   0.41962   0.15627
C          C       0.58038   0.35314   0.15627
C          C       0.89391   0.98020   0.17707
C          C       0.08628   0.10609   0.17707
C          C       0.01980   0.91372   0.17707
C          C       0.33522   0.57653   0.47202
C          C       0.42347   0.75869   0.47202
C          C       0.24131   0.66478   0.47202
C          C       0.57653   0.33522   0.52798
C          C       0.75869   0.42347   0.52798
C          C       0.66478   0.24131   0.52798
C          C       0.00189   0.90986   0.80535
C          C       0.09014   0.09202   0.80535
C          C       0.90798   0.99811   0.80535
C          C       0.24320   0.66855   0.86131
C          C       0.42536   0.75680   0.86131
C          C       0.33145   0.57464   0.86131
C          C       0.66855   0.24320   0.13869
C          C       0.75680   0.42536   0.13869
C          C       0.57464   0.33145   0.13869
C          C       0.90986   0.00189   0.19465
C          C       0.09202   0.09014   0.19465
C          C       0.99811   0.90798   0.19465
N          N       0.31759   0.49931   0.53694
N          N       0.50069   0.81828   0.53694
N          N       0.18172   0.68241   0.53694
N          N       0.49931   0.31759   0.46306
N          N       0.81828   0.50069   0.46306
N          N       0.68241   0.18172   0.46306
N          N       0.98426   0.83264   0.87027
N          N       0.16736   0.15161   0.87027
N          N       0.84839   0.01574   0.87027
N          N       0.16598   0.65092   0.79639
N          N       0.48495   0.83402   0.79639
N          N       0.34908   0.51505   0.79639
N          N       0.65092   0.16598   0.20361
N          N       0.83402   0.48495   0.20361
N          N       0.51505   0.34908   0.20361
N          N       0.83264   0.98426   0.12973
N          N       0.15161   0.16736   0.12973
N          N       0.01574   0.84839   0.12973
C          C       0.33692   0.51399   0.52027
C          C       0.48601   0.82293   0.52027
C          C       0.17707   0.66308   0.52027
C          C       0.51399   0.33692   0.47973
C          C       0.82293   0.48601   0.47973
C          C       0.66308   0.17707   0.47973
C          C       0.00359   0.84732   0.85360
C          C       0.15268   0.15626   0.85360
C          C       0.84374   0.99641   0.85360
C          C       0.18066   0.67025   0.81306
C          C       0.48960   0.81934   0.81306
C          C       0.32975   0.51040   0.81306
C          C       0.67025   0.18066   0.18694
C          C       0.81934   0.48960   0.18694
C          C       0.51040   0.32975   0.18694
C          C       0.84732   0.00359   0.14640
C          C       0.15626   0.15268   0.14640
C          C       0.99641   0.84374   0.14640
C          C       0.32423   0.45912   0.54321
C          C       0.54088   0.86511   0.54321
C          C       0.13489   0.67577   0.54321
C          C       0.45912   0.32423   0.45679
C          C       0.86511   0.54088   0.45679
C          C       0.67577   0.13489   0.45679
C          C       0.99090   0.79245   0.87654
C          C       0.20755   0.19844   0.87654
C          C       0.80156   0.00910   0.87654
C          C       0.12579   0.65756   0.79012
C          C       0.53178   0.87421   0.79012
C          C       0.34244   0.46822   0.79012
C          C       0.65756   0.12579   0.20988
C          C       0.87421   0.53178   0.20988
C          C       0.46822   0.34244   0.20988
C          C       0.79245   0.99090   0.12346
C          C       0.19844   0.20755   0.12346
C          C       0.00910   0.80156   0.12346
C          C       0.32433   0.43951   0.56003
C          C       0.56049   0.88482   0.56003
C          C       0.11518   0.67567   0.56003
C          C       0.43951   0.32433   0.43997
C          C       0.88482   0.56049   0.43997
C          C       0.67567   0.11518   0.43997
C          C       0.99100   0.77284   0.89336
C          C       0.22716   0.21815   0.89336
C          C       0.78185   0.00900   0.89336
C          C       0.10618   0.65766   0.77330
C          C       0.55149   0.89382   0.77330
C          C       0.34234   0.44851   0.77330
C          C       0.65766   0.10618   0.22670
C          C       0.89382   0.55149   0.22670
C          C       0.44851   0.34234   0.22670
C          C       0.77284   0.99100   0.10664
C          C       0.21815   0.22716   0.10664
C          C       0.00900   0.78185   0.10664
C          C       0.31860   0.43904   0.58713
C          C       0.56096   0.87956   0.58713
C          C       0.12044   0.68140   0.58713
C          C       0.43904   0.31860   0.41287
C          C       0.87956   0.56096   0.41287
C          C       0.68140   0.12044   0.41287
C          C       0.98527   0.77237   0.92046
C          C       0.22763   0.21289   0.92046
C          C       0.78711   0.01473   0.92046
C          C       0.10571   0.65193   0.74620
C          C       0.54623   0.89429   0.74620
C          C       0.34807   0.45377   0.74620
C          C       0.65193   0.10571   0.25380
C          C       0.89429   0.54623   0.25380
C          C       0.45377   0.34807   0.25380
C          C       0.77237   0.98527   0.07954
C          C       0.21289   0.22763   0.07954
C          C       0.01473   0.78711   0.07954
C          C       0.31188   0.45861   0.59662
C          C       0.54139   0.85327   0.59662
C          C       0.14673   0.68812   0.59662
C          C       0.45861   0.31188   0.40338
C          C       0.85327   0.54139   0.40338
C          C       0.68812   0.14673   0.40338
C          C       0.97855   0.79194   0.92995
C          C       0.20806   0.18660   0.92995
C          C       0.81340   0.02145   0.92995
C          C       0.12528   0.64521   0.73671
C          C       0.51994   0.87472   0.73671
C          C       0.35479   0.48006   0.73671
C          C       0.64521   0.12528   0.26329
C          C       0.87472   0.51994   0.26329
C          C       0.48006   0.35479   0.26329
C          C       0.79194   0.97855   0.07005
C          C       0.18660   0.20806   0.07005
C          C       0.02145   0.81340   0.07005
C          C       0.31138   0.47806   0.57993
C          C       0.52194   0.83332   0.57993
C          C       0.16668   0.68862   0.57993
C          C       0.47806   0.31138   0.42007
C          C       0.83332   0.52194   0.42007
C          C       0.68862   0.16668   0.42007
C          C       0.97805   0.81139   0.91326
C          C       0.18861   0.16665   0.91326
C          C       0.83335   0.02195   0.91326
C          C       0.14473   0.64471   0.75340
C          C       0.49999   0.85527   0.75340
C          C       0.35529   0.50001   0.75340
C          C       0.64471   0.14473   0.24660
C          C       0.85527   0.49999   0.24660
C          C       0.50001   0.35529   0.24660
C          C       0.81139   0.97805   0.08674
C          C       0.16665   0.18861   0.08674
C          C       0.02195   0.83335   0.08674
C          C       0.31830   0.47913   0.55308
C          C       0.52087   0.83917   0.55308
C          C       0.16083   0.68170   0.55308
C          C       0.47913   0.31830   0.44692
C          C       0.83917   0.52087   0.44692
C          C       0.68170   0.16083   0.44692
C          C       0.98497   0.81246   0.88641
C          C       0.18754   0.17250   0.88641
C          C       0.82750   0.01503   0.88641
C          C       0.14580   0.65163   0.78025
C          C       0.50584   0.85420   0.78025
C          C       0.34837   0.49416   0.78025
C          C       0.65163   0.14580   0.21975
C          C       0.85420   0.50584   0.21975
C          C       0.49416   0.34837   0.21975
C          C       0.81246   0.98497   0.11359
C          C       0.17250   0.18754   0.11359
C          C       0.01503   0.82750   0.11359
C          C       0.30147   0.40612   0.62602
C          C       0.59388   0.89535   0.62602
C          C       0.10465   0.69853   0.62602
C          C       0.40612   0.30147   0.37398
C          C       0.89535   0.59388   0.37398
C          C       0.69853   0.10465   0.37398
C          C       0.96814   0.73945   0.95935
C          C       0.26055   0.22868   0.95935
C          C       0.77132   0.03186   0.95935
C          C       0.07279   0.63480   0.70731
C          C       0.56202   0.92721   0.70731
C          C       0.36520   0.43798   0.70731
C          C       0.63480   0.07279   0.29269
C          C       0.92721   0.56202   0.29269
C          C       0.43798   0.36520   0.29269
C          C       0.73945   0.96814   0.04065
C          C       0.22868   0.26055   0.04065
C          C       0.03186   0.77132   0.04065
C          C       0.30492   0.38964   0.64440
C          C       0.61036   0.91528   0.64440
C          C       0.08472   0.69508   0.64440
C          C       0.38964   0.30492   0.35560
C          C       0.91528   0.61036   0.35560
C          C       0.69508   0.08472   0.35560
C          C       0.97159   0.72297   0.97773
C          C       0.27703   0.24861   0.97773
C          C       0.75139   0.02841   0.97773
C          C       0.05631   0.63825   0.68893
C          C       0.58195   0.94369   0.68893
C          C       0.36175   0.41805   0.68893
C          C       0.63825   0.05631   0.31107
C          C       0.94369   0.58195   0.31107
C          C       0.41805   0.36175   0.31107
C          C       0.72297   0.97159   0.02227
C          C       0.24861   0.27703   0.02227
C          C       0.02841   0.75139   0.02227
C          C       0.32756   0.38522   0.64322
C          C       0.61478   0.94234   0.64322
C          C       0.05766   0.67244   0.64322
C          C       0.38522   0.32756   0.35678
C          C       0.94234   0.61478   0.35678
C          C       0.67244   0.05766   0.35678
C          C       0.99423   0.71855   0.97655
C          C       0.28145   0.27567   0.97655
C          C       0.72433   0.00577   0.97655
C          C       0.05189   0.66089   0.69011
C          C       0.60901   0.94811   0.69011
C          C       0.33911   0.39099   0.69011
C          C       0.66089   0.05189   0.30989
C          C       0.94811   0.60901   0.30989
C          C       0.39099   0.33911   0.30989
C          C       0.71855   0.99423   0.02345
C          C       0.27567   0.28145   0.02345
C          C       0.00577   0.72433   0.02345
C          C       0.34651   0.39819   0.62263
C          C       0.60181   0.94832   0.62263
C          C       0.05168   0.65349   0.62263
C          C       0.39819   0.34651   0.37737
C          C       0.94832   0.60181   0.37737
C          C       0.65349   0.05168   0.37737
C          C       0.01318   0.73152   0.95596
C          C       0.26848   0.28165   0.95596
C          C       0.71835   0.98682   0.95596
C          C       0.06486   0.67984   0.71070
C          C       0.61499   0.93514   0.71070
C          C       0.32016   0.38501   0.71070
C          C       0.67984   0.06486   0.28930
C          C       0.93514   0.61499   0.28930
C          C       0.38501   0.32016   0.28930
C          C       0.73152   0.01318   0.04404
C          C       0.28165   0.26848   0.04404
C          C       0.98682   0.71835   0.04404
C          C       0.34305   0.41465   0.60417
C          C       0.58535   0.92840   0.60417
C          C       0.07160   0.65695   0.60417
C          C       0.41465   0.34305   0.39583
C          C       0.92840   0.58535   0.39583
C          C       0.65695   0.07160   0.39583
C          C       0.00972   0.74798   0.93750
C          C       0.25202   0.26173   0.93750
C          C       0.73827   0.99028   0.93750
C          C       0.08132   0.67638   0.72916
C          C       0.59507   0.91868   0.72916
C          C       0.32362   0.40493   0.72916
C          C       0.67638   0.08132   0.27084
C          C       0.91868   0.59507   0.27084
C          C       0.40493   0.32362   0.27084
C          C       0.74798   0.00972   0.06250
C          C       0.26173   0.25202   0.06250
C          C       0.99028   0.73827   0.06250
C          C       0.32069   0.41938   0.60561
C          C       0.58062   0.90131   0.60561
C          C       0.09869   0.67931   0.60561
C          C       0.41938   0.32069   0.39439
C          C       0.90131   0.58062   0.39439
C          C       0.67931   0.09869   0.39439
C          C       0.98736   0.75271   0.93894
C          C       0.24729   0.23464   0.93894
C          C       0.76536   0.01264   0.93894
C          C       0.08605   0.65402   0.72772
C          C       0.56798   0.91395   0.72772
C          C       0.34598   0.43202   0.72772
C          C       0.65402   0.08605   0.27228
C          C       0.91395   0.56798   0.27228
C          C       0.43202   0.34598   0.27228
C          C       0.75271   0.98736   0.06106
C          C       0.23464   0.24729   0.06106
C          C       0.01264   0.76536   0.06106
C          C       0.59891   0.33528   0.57212
C          C       0.66472   0.26363   0.57212
C          C       0.73637   0.40109   0.57212
C          C       0.33528   0.59891   0.42788
C          C       0.26363   0.66472   0.42788
C          C       0.40109   0.73637   0.42788
C          C       0.26558   0.66861   0.90545
C          C       0.33139   0.59696   0.90545
C          C       0.40304   0.73442   0.90545
C          C       0.00195   0.93224   0.76121
C          C       0.93030   0.99805   0.76121
C          C       0.06776   0.06970   0.76121
C          C       0.93224   0.00195   0.23879
C          C       0.99805   0.93030   0.23879
C          C       0.06970   0.06776   0.23879
C          C       0.66861   0.26558   0.09455
C          C       0.59696   0.33139   0.09455
C          C       0.73442   0.40304   0.09455
C          C       0.62059   0.33491   0.58593
C          C       0.66509   0.28568   0.58593
C          C       0.71432   0.37941   0.58593
C          C       0.33491   0.62059   0.41407
C          C       0.28568   0.66509   0.41407
C          C       0.37941   0.71432   0.41407
C          C       0.28726   0.66824   0.91926
C          C       0.33176   0.61901   0.91926
C          C       0.38099   0.71274   0.91926
C          C       0.00158   0.95392   0.74740
C          C       0.95235   0.99842   0.74740
C          C       0.04608   0.04765   0.74740
C          C       0.95392   0.00158   0.25260
C          C       0.99842   0.95235   0.25260
C          C       0.04765   0.04608   0.25260
C          C       0.66824   0.28726   0.08074
C          C       0.61901   0.33176   0.08074
C          C       0.71274   0.38099   0.08074
C          C       0.64172   0.33397   0.57230
C          C       0.66603   0.30775   0.57230
C          C       0.69225   0.35828   0.57230
C          C       0.33397   0.64172   0.42770
C          C       0.30775   0.66603   0.42770
C          C       0.35828   0.69225   0.42770
C          C       0.30839   0.66730   0.90563
C          C       0.33270   0.64108   0.90563
C          C       0.35892   0.69161   0.90563
C          C       0.00064   0.97505   0.76103
C          C       0.97442   0.99936   0.76103
C          C       0.02495   0.02558   0.76103
C          C       0.97505   0.00064   0.23897
C          C       0.99936   0.97442   0.23897
C          C       0.02558   0.02495   0.23897
C          C       0.66730   0.30839   0.09437
C          C       0.64108   0.33270   0.09437
C          C       0.69161   0.35892   0.09437
C          C       0.58324   0.35842   0.60503
C          C       0.64158   0.22482   0.60503
C          C       0.77518   0.41676   0.60503
C          C       0.35842   0.58324   0.39497
C          C       0.22482   0.64158   0.39497
C          C       0.41676   0.77518   0.39497
C          C       0.24991   0.69175   0.93836
C          C       0.30825   0.55815   0.93836
C          C       0.44185   0.75009   0.93836
C          C       0.02509   0.91657   0.72830
C          C       0.89149   0.97491   0.72830
C          C       0.08343   0.10851   0.72830
C          C       0.91657   0.02509   0.27170
C          C       0.97491   0.89149   0.27170
C          C       0.10851   0.08343   0.27170
C          C       0.69175   0.24991   0.06164
C          C       0.55815   0.30825   0.06164
C          C       0.75009   0.44185   0.06164
C          C       0.56265   0.36141   0.61730
C          C       0.63859   0.20124   0.61730
C          C       0.79876   0.43735   0.61730
C          C       0.36141   0.56265   0.38270
C          C       0.20124   0.63859   0.38270
C          C       0.43735   0.79876   0.38270
C          C       0.22932   0.69474   0.95063
C          C       0.30526   0.53457   0.95063
C          C       0.46543   0.77068   0.95063
C          C       0.02808   0.89598   0.71603
C          C       0.86791   0.97192   0.71603
C          C       0.10402   0.13209   0.71603
C          C       0.89598   0.02808   0.28397
C          C       0.97192   0.86791   0.28397
C          C       0.13209   0.10402   0.28397
C          C       0.69474   0.22932   0.04937
C          C       0.53457   0.30526   0.04937
C          C       0.77068   0.46543   0.04937
C          C       0.53461   0.34292   0.61210
C          C       0.65708   0.19169   0.61210
C          C       0.80831   0.46539   0.61210
C          C       0.34292   0.53461   0.38790
C          C       0.19169   0.65708   0.38790
C          C       0.46539   0.80831   0.38790
C          C       0.20128   0.67625   0.94543
C          C       0.32375   0.52502   0.94543
C          C       0.47498   0.79872   0.94543
C          C       0.00959   0.86794   0.72123
C          C       0.85836   0.99041   0.72123
C          C       0.13206   0.14164   0.72123
C          C       0.86794   0.00959   0.27877
C          C       0.99041   0.85836   0.27877
C          C       0.14164   0.13206   0.27877
C          C       0.67625   0.20128   0.05457
C          C       0.52502   0.32375   0.05457
C          C       0.79872   0.47498   0.05457
C          C       0.52797   0.32046   0.59520
C          C       0.67954   0.20751   0.59520
C          C       0.79249   0.47203   0.59520
C          C       0.32046   0.52797   0.40480
C          C       0.20751   0.67954   0.40480
C          C       0.47203   0.79249   0.40480
C          C       0.19464   0.65379   0.92853
C          C       0.34621   0.54084   0.92853
C          C       0.45916   0.80536   0.92853
C          C       0.98713   0.86130   0.73813
C          C       0.87418   0.01287   0.73813
C          C       0.13870   0.12582   0.73813
C          C       0.86130   0.98713   0.26187
C          C       0.01287   0.87418   0.26187
C          C       0.12582   0.13870   0.26187
C          C       0.65379   0.19464   0.07147
C          C       0.54084   0.34621   0.07147
C          C       0.80536   0.45916   0.07147
C          C       0.54852   0.31737   0.58313
C          C       0.68263   0.23115   0.58313
C          C       0.76885   0.45148   0.58313
C          C       0.31737   0.54852   0.41687
C          C       0.23115   0.68263   0.41687
C          C       0.45148   0.76885   0.41687
C          C       0.21519   0.65070   0.91646
C          C       0.34930   0.56448   0.91646
C          C       0.43552   0.78481   0.91646
C          C       0.98404   0.88185   0.75020
C          C       0.89782   0.01596   0.75020
C          C       0.11815   0.10218   0.75020
C          C       0.88185   0.98404   0.24980
C          C       0.01596   0.89782   0.24980
C          C       0.10218   0.11815   0.24980
C          C       0.65070   0.21519   0.08354
C          C       0.56448   0.34930   0.08354
C          C       0.78481   0.43552   0.08354
C          C       0.57659   0.33676   0.58716
C          C       0.66324   0.23983   0.58716
C          C       0.76017   0.42341   0.58716
C          C       0.33676   0.57659   0.41284
C          C       0.23983   0.66324   0.41284
C          C       0.42341   0.76017   0.41284
C          C       0.24326   0.67009   0.92049
C          C       0.32991   0.57316   0.92049
C          C       0.42684   0.75674   0.92049
C          C       0.00343   0.90992   0.74617
C          C       0.90650   0.99657   0.74617
C          C       0.09008   0.09350   0.74617
C          C       0.90992   0.00343   0.25383
C          C       0.99657   0.90650   0.25383
C          C       0.09350   0.09008   0.25383
C          C       0.67009   0.24326   0.07951
C          C       0.57316   0.32991   0.07951
C          C       0.75674   0.42684   0.07951
N          N       0.48801   0.33475   0.61437
N          N       0.66525   0.15326   0.61437
N          N       0.84674   0.51199   0.61437
N          N       0.33475   0.48801   0.38563
N          N       0.15326   0.66525   0.38563
N          N       0.51199   0.84674   0.38563
N          N       0.15468   0.66808   0.94770
N          N       0.33192   0.48659   0.94770
N          N       0.51341   0.84532   0.94770
N          N       0.00142   0.82134   0.71896
N          N       0.81993   0.99858   0.71896
N          N       0.17866   0.18007   0.71896
N          N       0.82134   0.00142   0.28104
N          N       0.99858   0.81993   0.28104
N          N       0.18007   0.17866   0.28104
N          N       0.66808   0.15468   0.05230
N          N       0.48659   0.33192   0.05230
N          N       0.84532   0.51341   0.05230
C          C       0.51308   0.34796   0.62294
C          C       0.65204   0.16512   0.62294
C          C       0.83488   0.48692   0.62294
C          C       0.34796   0.51308   0.37706
C          C       0.16512   0.65204   0.37706
C          C       0.48692   0.83488   0.37706
C          C       0.17975   0.68129   0.95627
C          C       0.31871   0.49845   0.95627
C          C       0.50155   0.82025   0.95627
C          C       0.01463   0.84641   0.71039
C          C       0.83179   0.98537   0.71039
C          C       0.15359   0.16821   0.71039
C          C       0.84641   0.01463   0.28961
C          C       0.98537   0.83179   0.28961
C          C       0.16821   0.15359   0.28961
C          C       0.68129   0.17975   0.04373
C          C       0.49845   0.31871   0.04373
C          C       0.82025   0.50155   0.04373
C          C       0.46007   0.33860   0.65021
C          C       0.66140   0.12147   0.65021
C          C       0.87853   0.53993   0.65021
C          C       0.33860   0.46007   0.34979
C          C       0.12147   0.66140   0.34979
C          C       0.53993   0.87853   0.34979
C          C       0.12674   0.67193   0.98354
C          C       0.32807   0.45480   0.98354
C          C       0.54520   0.87326   0.98354
C          C       0.00527   0.79340   0.68312
C          C       0.78814   0.99473   0.68312
C          C       0.20660   0.21186   0.68312
C          C       0.79340   0.00527   0.31688
C          C       0.99473   0.78814   0.31688
C          C       0.21186   0.20660   0.31688
C          C       0.67193   0.12674   0.01646
C          C       0.45480   0.32807   0.01646
C          C       0.87326   0.54520   0.01646
C          C       0.43845   0.34267   0.65783
C          C       0.65733   0.09578   0.65783
C          C       0.90422   0.56155   0.65783
C          C       0.34267   0.43845   0.34217
C          C       0.09578   0.65733   0.34217
C          C       0.56155   0.90422   0.34217
C          C       0.10512   0.67600   0.99116
C          C       0.32400   0.42911   0.99116
C          C       0.57089   0.89488   0.99116
C          C       0.00934   0.77178   0.67550
C          C       0.76245   0.99066   0.67550
C          C       0.22822   0.23755   0.67550
C          C       0.77178   0.00934   0.32450
C          C       0.99066   0.76245   0.32450
C          C       0.23755   0.22822   0.32450
C          C       0.67600   0.10512   0.00884
C          C       0.42911   0.32400   0.00884
C          C       0.89488   0.57089   0.00884
C          C       0.42328   0.34833   0.63920
C          C       0.65167   0.07495   0.63920
C          C       0.92505   0.57672   0.63920
C          C       0.34833   0.42328   0.36080
C          C       0.07495   0.65167   0.36080
C          C       0.57672   0.92505   0.36080
C          C       0.08995   0.68166   0.97253
C          C       0.31834   0.40828   0.97253
C          C       0.59172   0.91005   0.97253
C          C       0.01500   0.75661   0.69413
C          C       0.74162   0.98500   0.69413
C          C       0.24339   0.25838   0.69413
C          C       0.75661   0.01500   0.30587
C          C       0.98500   0.74162   0.30587
C          C       0.25838   0.24339   0.30587
C          C       0.68166   0.08995   0.02747
C          C       0.40828   0.31834   0.02747
C          C       0.91005   0.59172   0.02747
C          C       0.43045   0.34935   0.61240
C          C       0.65065   0.08110   0.61240
C          C       0.91890   0.56955   0.61240
C          C       0.34935   0.43045   0.38760
C          C       0.08110   0.65065   0.38760
C          C       0.56955   0.91890   0.38760
C          C       0.09712   0.68268   0.94573
C          C       0.31732   0.41443   0.94573
C          C       0.58557   0.90288   0.94573
C          C       0.01602   0.76378   0.72093
C          C       0.74777   0.98398   0.72093
C          C       0.23622   0.25223   0.72093
C          C       0.76378   0.01602   0.27907
C          C       0.98398   0.74777   0.27907
C          C       0.25223   0.23622   0.27907
C          C       0.68268   0.09712   0.05427
C          C       0.41443   0.31732   0.05427
C          C       0.90288   0.58557   0.05427
C          C       0.45162   0.34481   0.60453
C          C       0.65519   0.10681   0.60453
C          C       0.89319   0.54838   0.60453
C          C       0.34481   0.45162   0.39547
C          C       0.10681   0.65519   0.39547
C          C       0.54838   0.89319   0.39547
C          C       0.11829   0.67814   0.93786
C          C       0.32186   0.44014   0.93786
C          C       0.55986   0.88171   0.93786
C          C       0.01148   0.78495   0.72880
C          C       0.77348   0.98852   0.72880
C          C       0.21505   0.22652   0.72880
C          C       0.78495   0.01148   0.27120
C          C       0.98852   0.77348   0.27120
C          C       0.22652   0.21505   0.27120
C          C       0.67814   0.11829   0.06214
C          C       0.44014   0.32186   0.06214
C          C       0.88171   0.55986   0.06214
C          C       0.46713   0.33987   0.62337
C          C       0.66013   0.12726   0.62337
C          C       0.87274   0.53287   0.62337
C          C       0.33987   0.46713   0.37663
C          C       0.12726   0.66013   0.37663
C          C       0.53287   0.87274   0.37663
C          C       0.13380   0.67320   0.95670
C          C       0.32680   0.46059   0.95670
C          C       0.53941   0.86620   0.95670
C          C       0.00654   0.80046   0.70996
C          C       0.79393   0.99346   0.70996
C          C       0.19954   0.20607   0.70996
C          C       0.80046   0.00654   0.29004
C          C       0.99346   0.79393   0.29004
C          C       0.20607   0.19954   0.29004
C          C       0.67320   0.13380   0.04330
C          C       0.46059   0.32680   0.04330
C          C       0.86620   0.53941   0.04330
C          C       0.37628   0.34306   0.63182
C          C       0.65694   0.03322   0.63182
C          C       0.96678   0.62372   0.63182
C          C       0.34306   0.37628   0.36818
C          C       0.03322   0.65694   0.36818
C          C       0.62372   0.96678   0.36818
C          C       0.04295   0.67639   0.96515
C          C       0.32361   0.36655   0.96515
C          C       0.63345   0.95705   0.96515
C          C       0.00973   0.70961   0.70151
C          C       0.69989   0.99027   0.70151
C          C       0.29039   0.30011   0.70151
C          C       0.70961   0.00973   0.29849
C          C       0.99027   0.69989   0.29849
C          C       0.30011   0.29039   0.29849
C          C       0.67639   0.04295   0.03485
C          C       0.36655   0.32361   0.03485
C          C       0.95705   0.63345   0.03485
C          C       0.35550   0.34869   0.63835
C          C       0.65131   0.00681   0.63835
C          C       0.99319   0.64450   0.63835
C          C       0.34869   0.35550   0.36165
C          C       0.00681   0.65131   0.36165
C          C       0.64450   0.99319   0.36165
C          C       0.02217   0.68202   0.97168
C          C       0.31798   0.34014   0.97168
C          C       0.65986   0.97783   0.97168
C          C       0.01536   0.68883   0.69498
C          C       0.67348   0.98464   0.69498
C          C       0.31117   0.32652   0.69498
C          C       0.68883   0.01536   0.30502
C          C       0.98464   0.67348   0.30502
C          C       0.32652   0.31117   0.30502
C          C       0.68202   0.02217   0.02832
C          C       0.34014   0.31798   0.02832
C          C       0.97783   0.65986   0.02832
C          C       0.35782   0.36518   0.66027
C          C       0.63482   0.99264   0.66027
C          C       0.00736   0.64218   0.66027
C          C       0.36518   0.35782   0.33973
C          C       0.99264   0.63482   0.33973
C          C       0.64218   0.00736   0.33973
C          C       0.02449   0.69851   0.99360
C          C       0.30149   0.32597   0.99360
C          C       0.67403   0.97551   0.99360
C          C       0.03185   0.69115   0.67306
C          C       0.65931   0.96815   0.67306
C          C       0.30885   0.34069   0.67306
C          C       0.69115   0.03185   0.32694
C          C       0.96815   0.65931   0.32694
C          C       0.34069   0.30885   0.32694
C          C       0.69851   0.02449   0.00640
C          C       0.32597   0.30149   0.00640
C          C       0.97551   0.67403   0.00640
C          C       0.38130   0.37433   0.67621
C          C       0.62567   0.00697   0.67621
C          C       0.99303   0.61870   0.67621
C          C       0.37433   0.38130   0.32379
C          C       0.00697   0.62567   0.32379
C          C       0.61870   0.99303   0.32379
C          C       0.04797   0.70766   0.00954
C          C       0.29234   0.34030   0.00954
C          C       0.65970   0.95203   0.00954
C          C       0.04100   0.71463   0.65712
C          C       0.67364   0.95900   0.65712
C          C       0.28537   0.32636   0.65712
C          C       0.71463   0.04100   0.34288
C          C       0.95900   0.67364   0.34288
C          C       0.32636   0.28537   0.34288
C          C       0.70766   0.04797   0.99046
C          C       0.34030   0.29234   0.99046
C          C       0.95203   0.65970   0.99046
C          C       0.40218   0.36869   0.66968
C          C       0.63131   0.03349   0.66968
C          C       0.96651   0.59782   0.66968
C          C       0.36869   0.40218   0.33032
C          C       0.03349   0.63131   0.33032
C          C       0.59782   0.96651   0.33032
C          C       0.06885   0.70202   0.00301
C          C       0.29798   0.36682   0.00301
C          C       0.63318   0.93115   0.00301
C          C       0.03536   0.73551   0.66365
C          C       0.70016   0.96464   0.66365
C          C       0.26449   0.29984   0.66365
C          C       0.73551   0.03536   0.33635
C          C       0.96464   0.70016   0.33635
C          C       0.29984   0.26449   0.33635
C          C       0.70202   0.06885   0.99699
C          C       0.36682   0.29798   0.99699
C          C       0.93115   0.63318   0.99699
C          C       0.40044   0.35331   0.64712
C          C       0.64669   0.04713   0.64712
C          C       0.95287   0.59956   0.64712
C          C       0.35331   0.40044   0.35288
C          C       0.04713   0.64669   0.35288
C          C       0.59956   0.95287   0.35288
C          C       0.06711   0.68664   0.98045
C          C       0.31336   0.38046   0.98045
C          C       0.61954   0.93289   0.98045
C          C       0.01998   0.73377   0.68621
C          C       0.71380   0.98002   0.68621
C          C       0.26623   0.28620   0.68621
C          C       0.73377   0.01998   0.31379
C          C       0.98002   0.71380   0.31379
C          C       0.28620   0.26623   0.31379
C          C       0.68664   0.06711   0.01955
C          C       0.38046   0.31336   0.01955
C          C       0.93289   0.61954   0.01955
H          H       0.33361   0.62039   0.49079
H          H       0.37961   0.71322   0.49079
H          H       0.28678   0.66639   0.49079
H          H       0.62039   0.33361   0.50921
H          H       0.71322   0.37961   0.50921
H          H       0.66639   0.28678   0.50921
H          H       0.00028   0.95372   0.82412
H          H       0.04628   0.04655   0.82412
H          H       0.95345   0.99972   0.82412
H          H       0.28706   0.66694   0.84254
H          H       0.37989   0.71294   0.84254
H          H       0.33306   0.62011   0.84254
H          H       0.66694   0.28706   0.15746
H          H       0.71294   0.37989   0.15746
H          H       0.62011   0.33306   0.15746
H          H       0.95372   0.00028   0.17588
H          H       0.04655   0.04628   0.17588
H          H       0.99972   0.95345   0.17588
H          H       0.37454   0.58359   0.45738
H          H       0.41641   0.79095   0.45738
H          H       0.20905   0.62546   0.45738
H          H       0.58359   0.37454   0.54262
H          H       0.79095   0.41641   0.54262
H          H       0.62546   0.20905   0.54262
H          H       0.04121   0.91692   0.79071
H          H       0.08308   0.12428   0.79071
H          H       0.87572   0.95879   0.79071
H          H       0.25026   0.70787   0.87595
H          H       0.45762   0.74974   0.87595
H          H       0.29213   0.54238   0.87595
H          H       0.70787   0.25026   0.12405
H          H       0.74974   0.45762   0.12405
H          H       0.54238   0.29213   0.12405
H          H       0.91692   0.04121   0.20929
H          H       0.12428   0.08308   0.20929
H          H       0.95879   0.87572   0.20929
H          H       0.37522   0.54774   0.48467
H          H       0.45226   0.82748   0.48467
H          H       0.17252   0.62478   0.48467
H          H       0.54774   0.37522   0.51533
H          H       0.82748   0.45226   0.51533
H          H       0.62478   0.17252   0.51533
H          H       0.04189   0.88107   0.81800
H          H       0.11893   0.16081   0.81800
H          H       0.83919   0.95811   0.81800
H          H       0.21441   0.70855   0.84866
H          H       0.49415   0.78559   0.84866
H          H       0.29145   0.50585   0.84866
H          H       0.70855   0.21441   0.15134
H          H       0.78559   0.49415   0.15134
H          H       0.50585   0.29145   0.15134
H          H       0.88107   0.04189   0.18200
H          H       0.16081   0.11893   0.18200
H          H       0.95811   0.83919   0.18200
H          H       0.29677   0.52806   0.51830
H          H       0.47194   0.76871   0.51830
H          H       0.23129   0.70323   0.51830
H          H       0.52806   0.29677   0.48170
H          H       0.76871   0.47194   0.48170
H          H       0.70323   0.23129   0.48170
H          H       0.96344   0.86139   0.85163
H          H       0.13861   0.10204   0.85163
H          H       0.89796   0.03656   0.85163
H          H       0.19473   0.63010   0.81503
H          H       0.43538   0.80527   0.81503
H          H       0.36990   0.56462   0.81503
H          H       0.63010   0.19473   0.18497
H          H       0.80527   0.43538   0.18497
H          H       0.56462   0.36990   0.18497
H          H       0.86139   0.96344   0.14837
H          H       0.10204   0.13861   0.14837
H          H       0.03656   0.89796   0.14837
H          H       0.29611   0.56403   0.49099
H          H       0.43597   0.73208   0.49099
H          H       0.26792   0.70389   0.49099
H          H       0.56403   0.29611   0.50901
H          H       0.73208   0.43597   0.50901
H          H       0.70389   0.26792   0.50901
H          H       0.96278   0.89736   0.82432
H          H       0.10264   0.06541   0.82432
H          H       0.93459   0.03722   0.82432
H          H       0.23070   0.62944   0.84234
H          H       0.39875   0.76930   0.84234
H          H       0.37056   0.60125   0.84234
H          H       0.62944   0.23070   0.15766
H          H       0.76930   0.39875   0.15766
H          H       0.60125   0.37056   0.15766
H          H       0.89736   0.96278   0.17568
H          H       0.06541   0.10264   0.17568
H          H       0.03722   0.93459   0.17568
H          H       0.35564   0.51201   0.51824
H          H       0.48799   0.84363   0.51824
H          H       0.15637   0.64436   0.51824
H          H       0.51201   0.35564   0.48176
H          H       0.84363   0.48799   0.48176
H          H       0.64436   0.15637   0.48176
H          H       0.02231   0.84534   0.85157
H          H       0.15466   0.17696   0.85157
H          H       0.82304   0.97769   0.85157
H          H       0.17868   0.68897   0.81509
H          H       0.51030   0.82132   0.81509
H          H       0.31103   0.48970   0.81509
H          H       0.68897   0.17868   0.18491
H          H       0.82132   0.51030   0.18491
H          H       0.48970   0.31103   0.18491
H          H       0.84534   0.02231   0.14843
H          H       0.17696   0.15466   0.14843
H          H       0.97769   0.82304   0.14843
H          H       0.32846   0.45870   0.52234
H          H       0.54130   0.86976   0.52234
H          H       0.13024   0.67154   0.52234
H          H       0.45870   0.32846   0.47766
H          H       0.86976   0.54130   0.47766
H          H       0.67154   0.13024   0.47766
H          H       0.99513   0.79203   0.85567
H          H       0.20797   0.20309   0.85567
H          H       0.79691   0.00487   0.85567
H          H       0.12537   0.66179   0.81099
H          H       0.53643   0.87463   0.81099
H          H       0.33821   0.46357   0.81099
H          H       0.66179   0.12537   0.18901
H          H       0.87463   0.53643   0.18901
H          H       0.46357   0.33821   0.18901
H          H       0.79203   0.99513   0.14433
H          H       0.20309   0.20797   0.14433
H          H       0.00487   0.79691   0.14433
H          H       0.32882   0.42424   0.55181
H          H       0.57576   0.90458   0.55181
H          H       0.09542   0.67118   0.55181
H          H       0.42424   0.32882   0.44819
H          H       0.90458   0.57576   0.44819
H          H       0.67118   0.09542   0.44819
H          H       0.99549   0.75757   0.88514
H          H       0.24243   0.23791   0.88514
H          H       0.76209   0.00451   0.88514
H          H       0.09091   0.66215   0.78152
H          H       0.57125   0.90909   0.78152
H          H       0.33785   0.42875   0.78152
H          H       0.66215   0.09091   0.21848
H          H       0.90909   0.57125   0.21848
H          H       0.42875   0.33785   0.21848
H          H       0.75757   0.99549   0.11486
H          H       0.23791   0.24243   0.11486
H          H       0.00451   0.76209   0.11486
H          H       0.30741   0.45899   0.61743
H          H       0.54101   0.84842   0.61743
H          H       0.15158   0.69259   0.61743
H          H       0.45899   0.30741   0.38257
H          H       0.84842   0.54101   0.38257
H          H       0.69259   0.15158   0.38257
H          H       0.97408   0.79232   0.95076
H          H       0.20768   0.18175   0.95076
H          H       0.81825   0.02592   0.95076
H          H       0.12566   0.64074   0.71590
H          H       0.51509   0.87434   0.71590
H          H       0.35926   0.48491   0.71590
H          H       0.64074   0.12566   0.28410
H          H       0.87434   0.51509   0.28410
H          H       0.48491   0.35926   0.28410
H          H       0.79232   0.97408   0.04924
H          H       0.18175   0.20768   0.04924
H          H       0.02592   0.81825   0.04924
H          H       0.30660   0.49323   0.58782
H          H       0.50677   0.81337   0.58782
H          H       0.18663   0.69340   0.58782
H          H       0.49323   0.30660   0.41218
H          H       0.81337   0.50677   0.41218
H          H       0.69340   0.18663   0.41218
H          H       0.97327   0.82656   0.92115
H          H       0.17344   0.14670   0.92115
H          H       0.85330   0.02673   0.92115
H          H       0.15990   0.63993   0.74551
H          H       0.48004   0.84010   0.74551
H          H       0.36007   0.51996   0.74551
H          H       0.63993   0.15990   0.25449
H          H       0.84010   0.48004   0.25449
H          H       0.51996   0.36007   0.25449
H          H       0.82656   0.97327   0.07885
H          H       0.14670   0.17344   0.07885
H          H       0.02673   0.85330   0.07885
H          H       0.28361   0.40883   0.62783
H          H       0.59117   0.87478   0.62783
H          H       0.12522   0.71639   0.62783
H          H       0.40883   0.28361   0.37217
H          H       0.87478   0.59117   0.37217
H          H       0.71639   0.12522   0.37217
H          H       0.95028   0.74216   0.96116
H          H       0.25784   0.20811   0.96116
H          H       0.79189   0.04972   0.96116
H          H       0.07550   0.61694   0.70550
H          H       0.54145   0.92450   0.70550
H          H       0.38306   0.45855   0.70550
H          H       0.61694   0.07550   0.29450
H          H       0.92450   0.54145   0.29450
H          H       0.45855   0.38306   0.29450
H          H       0.74216   0.95028   0.03884
H          H       0.20811   0.25784   0.03884
H          H       0.04972   0.79189   0.03884
H          H       0.28987   0.38057   0.66022
H          H       0.61943   0.90930   0.66022
H          H       0.09070   0.71013   0.66022
H          H       0.38057   0.28987   0.33978
H          H       0.90930   0.61943   0.33978
H          H       0.71013   0.09070   0.33978
H          H       0.95654   0.71390   0.99355
H          H       0.28610   0.24263   0.99355
H          H       0.75737   0.04346   0.99355
H          H       0.04724   0.62320   0.67311
H          H       0.57597   0.95276   0.67311
H          H       0.37680   0.42403   0.67311
H          H       0.62320   0.04724   0.32689
H          H       0.95276   0.57597   0.32689
H          H       0.42403   0.37680   0.32689
H          H       0.71390   0.95654   0.00645
H          H       0.24263   0.28610   0.00645
H          H       0.04346   0.75737   0.00645
H          H       0.36479   0.39621   0.62100
H          H       0.60379   0.96858   0.62100
H          H       0.03142   0.63521   0.62100
H          H       0.39621   0.36479   0.37900
H          H       0.96858   0.60379   0.37900
H          H       0.63521   0.03142   0.37900
H          H       0.03146   0.72954   0.95433
H          H       0.27046   0.30191   0.95433
H          H       0.69809   0.96854   0.95433
H          H       0.06288   0.69812   0.71233
H          H       0.63525   0.93712   0.71233
H          H       0.30188   0.36475   0.71233
H          H       0.69812   0.06288   0.28767
H          H       0.93712   0.63525   0.28767
H          H       0.36475   0.30188   0.28767
H          H       0.72954   0.03146   0.04567
H          H       0.30191   0.27046   0.04567
H          H       0.96854   0.69809   0.04567
H          H       0.35872   0.42474   0.58902
H          H       0.57526   0.93398   0.58902
H          H       0.06602   0.64128   0.58902
H          H       0.42474   0.35872   0.41098
H          H       0.93398   0.57526   0.41098
H          H       0.64128   0.06602   0.41098
H          H       0.02539   0.75807   0.92235
H          H       0.24193   0.26731   0.92235
H          H       0.73269   0.97461   0.92235
H          H       0.09141   0.69205   0.74431
H          H       0.60065   0.90859   0.74431
H          H       0.30795   0.39935   0.74431
H          H       0.69205   0.09141   0.25569
H          H       0.90859   0.60065   0.25569
H          H       0.39935   0.30795   0.25569
H          H       0.75807   0.02539   0.07765
H          H       0.26731   0.24193   0.07765
H          H       0.97461   0.73269   0.07765
H          H       0.62061   0.33508   0.60739
H          H       0.66492   0.28553   0.60739
H          H       0.71447   0.37939   0.60739
H          H       0.33508   0.62061   0.39261
H          H       0.28553   0.66492   0.39261
H          H       0.37939   0.71447   0.39261
H          H       0.28728   0.66841   0.94072
H          H       0.33159   0.61886   0.94072
H          H       0.38114   0.71272   0.94072
H          H       0.00175   0.95394   0.72594
H          H       0.95220   0.99825   0.72594
H          H       0.04606   0.04780   0.72594
H          H       0.95394   0.00175   0.27406
H          H       0.99825   0.95220   0.27406
H          H       0.04780   0.04606   0.27406
H          H       0.66841   0.28728   0.05928
H          H       0.61886   0.33159   0.05928
H          H       0.71272   0.38114   0.05928
H          H       0.60473   0.37358   0.60877
H          H       0.62642   0.23115   0.60877
H          H       0.76885   0.39527   0.60877
H          H       0.37358   0.60473   0.39123
H          H       0.23115   0.62642   0.39123
H          H       0.39527   0.76885   0.39123
H          H       0.27140   0.70691   0.94210
H          H       0.29309   0.56448   0.94210
H          H       0.43552   0.72860   0.94210
H          H       0.04025   0.93806   0.72456
H          H       0.89782   0.95975   0.72456
H          H       0.06194   0.10218   0.72456
H          H       0.93806   0.04025   0.27544
H          H       0.95975   0.89782   0.27544
H          H       0.10218   0.06194   0.27544
H          H       0.70691   0.27140   0.05790
H          H       0.56448   0.29309   0.05790
H          H       0.72860   0.43552   0.05790
H          H       0.56844   0.37876   0.63053
H          H       0.62124   0.18968   0.63053
H          H       0.81032   0.43156   0.63053
H          H       0.37876   0.56844   0.36947
H          H       0.18968   0.62124   0.36947
H          H       0.43156   0.81032   0.36947
H          H       0.23511   0.71209   0.96386
H          H       0.28791   0.52301   0.96386
H          H       0.47699   0.76489   0.96386
H          H       0.04543   0.90177   0.70280
H          H       0.85635   0.95457   0.70280
H          H       0.09823   0.14365   0.70280
H          H       0.90177   0.04543   0.29720
H          H       0.95457   0.85635   0.29720
H          H       0.14365   0.09823   0.29720
H          H       0.71209   0.23511   0.03614
H          H       0.52301   0.28791   0.03614
H          H       0.76489   0.47699   0.03614
H          H       0.50646   0.30557   0.59127
H          H       0.69443   0.20089   0.59127
H          H       0.79911   0.49354   0.59127
H          H       0.30557   0.50646   0.40873
H          H       0.20089   0.69443   0.40873
H          H       0.49354   0.79911   0.40873
H          H       0.17313   0.63890   0.92460
H          H       0.36110   0.53422   0.92460
H          H       0.46578   0.82687   0.92460
H          H       0.97224   0.83979   0.74206
H          H       0.86756   0.02776   0.74206
H          H       0.16021   0.13244   0.74206
H          H       0.83979   0.97224   0.25794
H          H       0.02776   0.86756   0.25794
H          H       0.13244   0.16021   0.25794
H          H       0.63890   0.17313   0.07540
H          H       0.53422   0.36110   0.07540
H          H       0.82687   0.46578   0.07540
H          H       0.54272   0.29990   0.57008
H          H       0.70010   0.24282   0.57008
H          H       0.75718   0.45728   0.57008
H          H       0.29990   0.54272   0.42992
H          H       0.24282   0.70010   0.42992
H          H       0.45728   0.75718   0.42992
H          H       0.20939   0.63323   0.90341
H          H       0.36677   0.57615   0.90341
H          H       0.42385   0.79061   0.90341
H          H       0.96657   0.87605   0.76325
H          H       0.90949   0.03343   0.76325
H          H       0.12395   0.09051   0.76325
H          H       0.87605   0.96657   0.23675
H          H       0.03343   0.90949   0.23675
H          H       0.09051   0.12395   0.23675
H          H       0.63323   0.20939   0.09659
H          H       0.57615   0.36677   0.09659
H          H       0.79061   0.42385   0.09659
H          H       0.51993   0.36480   0.63774
H          H       0.63520   0.15513   0.63774
H          H       0.84487   0.48007   0.63774
H          H       0.36480   0.51993   0.36226
H          H       0.15513   0.63520   0.36226
H          H       0.48007   0.84487   0.36226
H          H       0.18660   0.69813   0.97107
H          H       0.30187   0.48846   0.97107
H          H       0.51154   0.81340   0.97107
H          H       0.03147   0.85326   0.69559
H          H       0.82180   0.96853   0.69559
H          H       0.14674   0.17820   0.69559
H          H       0.85326   0.03147   0.30441
H          H       0.96853   0.82180   0.30441
H          H       0.17820   0.14674   0.30441
H          H       0.69813   0.18660   0.02893
H          H       0.48846   0.30187   0.02893
H          H       0.81340   0.51154   0.02893
H          H       0.47120   0.33399   0.66504
H          H       0.66601   0.13721   0.66504
H          H       0.86279   0.52880   0.66504
H          H       0.33399   0.47120   0.33496
H          H       0.13721   0.66601   0.33496
H          H       0.52880   0.86279   0.33496
H          H       0.13787   0.66732   0.99837
H          H       0.33268   0.47054   0.99837
H          H       0.52946   0.86213   0.99837
H          H       0.00066   0.80453   0.66829
H          H       0.80388   0.99934   0.66829
H          H       0.19547   0.19612   0.66829
H          H       0.80453   0.00066   0.33171
H          H       0.99934   0.80388   0.33171
H          H       0.19612   0.19547   0.33171
H          H       0.66732   0.13787   0.00163
H          H       0.47054   0.33268   0.00163
H          H       0.86213   0.52946   0.00163
H          H       0.43320   0.34109   0.67865
H          H       0.65891   0.09211   0.67865
H          H       0.90789   0.56680   0.67865
H          H       0.34109   0.43320   0.32135
H          H       0.09211   0.65891   0.32135
H          H       0.56680   0.90789   0.32135
H          H       0.09987   0.67442   0.01198
H          H       0.32558   0.42544   0.01198
H          H       0.57456   0.90013   0.01198
H          H       0.00776   0.76653   0.65468
H          H       0.75878   0.99224   0.65468
H          H       0.23347   0.24122   0.65468
H          H       0.76653   0.00776   0.34532
H          H       0.99224   0.75878   0.34532
H          H       0.24122   0.23347   0.34532
H          H       0.67442   0.09987   0.98802
H          H       0.42544   0.32558   0.98802
H          H       0.90013   0.57456   0.98802
H          H       0.41950   0.35399   0.59739
H          H       0.64601   0.06551   0.59739
H          H       0.93449   0.58050   0.59739
H          H       0.35399   0.41950   0.40261
H          H       0.06551   0.64601   0.40261
H          H       0.58050   0.93449   0.40261
H          H       0.08617   0.68732   0.93072
H          H       0.31268   0.39884   0.93072
H          H       0.60116   0.91383   0.93072
H          H       0.02066   0.75283   0.73594
H          H       0.73218   0.97934   0.73594
H          H       0.24717   0.26782   0.73594
H          H       0.75283   0.02066   0.26406
H          H       0.97934   0.73218   0.26406
H          H       0.26782   0.24717   0.26406
H          H       0.68732   0.08617   0.06928
H          H       0.39884   0.31268   0.06928
H          H       0.91383   0.60116   0.06928
H          H       0.45687   0.34591   0.58377
H          H       0.65409   0.11096   0.58377
H          H       0.88904   0.54313   0.58377
H          H       0.34591   0.45687   0.41623
H          H       0.11096   0.65409   0.41623
H          H       0.54313   0.88904   0.41623
H          H       0.12354   0.67924   0.91710
H          H       0.32076   0.44429   0.91710
H          H       0.55571   0.87646   0.91710
H          H       0.01258   0.79020   0.74956
H          H       0.77763   0.98742   0.74956
H          H       0.20980   0.22237   0.74956
H          H       0.79020   0.01258   0.25044
H          H       0.98742   0.77763   0.25044
H          H       0.22237   0.20980   0.25044
H          H       0.67924   0.12354   0.08290
H          H       0.44429   0.32076   0.08290
H          H       0.87646   0.55571   0.08290
H          H       0.37336   0.33014   0.61474
H          H       0.66986   0.04322   0.61474
H          H       0.95678   0.62664   0.61474
H          H       0.33014   0.37336   0.38526
H          H       0.04322   0.66986   0.38526
H          H       0.62664   0.95678   0.38526
H          H       0.04003   0.66347   0.94807
H          H       0.33653   0.37655   0.94807
H          H       0.62345   0.95997   0.94807
H          H       0.99681   0.70669   0.71859
H          H       0.70989   0.00319   0.71859
H          H       0.29331   0.29011   0.71859
H          H       0.70669   0.99681   0.28141
H          H       0.00319   0.70989   0.28141
H          H       0.29011   0.29331   0.28141
H          H       0.66347   0.04003   0.05193
H          H       0.37655   0.33653   0.05193
H          H       0.95997   0.62345   0.05193
H          H       0.33722   0.34022   0.62594
H          H       0.65978   0.99700   0.62594
H          H       0.00300   0.66278   0.62594
H          H       0.34022   0.33722   0.37406
H          H       0.99700   0.65978   0.37406
H          H       0.66278   0.00300   0.37406
H          H       0.00389   0.67355   0.95927
H          H       0.32645   0.33033   0.95927
H          H       0.66967   0.99611   0.95927
H          H       0.00689   0.67055   0.70739
H          H       0.66367   0.99311   0.70739
H          H       0.32945   0.33633   0.70739
H          H       0.67055   0.00689   0.29261
H          H       0.99311   0.66367   0.29261
H          H       0.33633   0.32945   0.29261
H          H       0.67355   0.00389   0.04073
H          H       0.33033   0.32645   0.04073
H          H       0.99611   0.66967   0.04073
H          H       0.38375   0.38615   0.69400
H          H       0.61385   0.99760   0.69400
H          H       0.00240   0.61625   0.69400
H          H       0.38615   0.38375   0.30600
H          H       0.99760   0.61385   0.30600
H          H       0.61625   0.00240   0.30600
H          H       0.05042   0.71948   0.02733
H          H       0.28052   0.33093   0.02733
H          H       0.66907   0.94958   0.02733
H          H       0.05282   0.71708   0.63933
H          H       0.66427   0.94718   0.63933
H          H       0.28292   0.33573   0.63933
H          H       0.71708   0.05282   0.36067
H          H       0.94718   0.66427   0.36067
H          H       0.33573   0.28292   0.36067
H          H       0.71948   0.05042   0.97267
H          H       0.33093   0.28052   0.97267
H          H       0.94958   0.66907   0.97267
H          H       0.42029   0.37691   0.68231
H          H       0.62309   0.04338   0.68231
H          H       0.95662   0.57971   0.68231
H          H       0.37691   0.42029   0.31769
H          H       0.04338   0.62309   0.31769
H          H       0.57971   0.95662   0.31769
H          H       0.08696   0.71024   0.01564
H          H       0.28976   0.37671   0.01564
H          H       0.62329   0.91304   0.01564
H          H       0.04358   0.75362   0.65102
H          H       0.71005   0.95642   0.65102
H          H       0.24638   0.28995   0.65102
H          H       0.75362   0.04358   0.34898
H          H       0.95642   0.71005   0.34898
H          H       0.28995   0.24638   0.34898
H          H       0.71024   0.08696   0.98436
H          H       0.37671   0.28976   0.98436
H          H       0.91304   0.62329   0.98436
C          C       0.00000   0.70365   0.00000
C          C       0.29635   0.29635   0.00000
C          C       0.70365   1.00000   0.00000
C          C       0.66667   0.03698   0.33333
C          C       0.96302   0.62968   0.33333
C          C       0.37032   0.33333   0.33333
C          C       0.33333   0.37032   0.66667
C          C       0.62968   0.96302   0.66667
C          C       0.03698   0.66667   0.66667
C          C       0.33333   0.66667   0.46729
C          C       0.66667   0.33333   0.53271
C          C       1.00000   0.00000   0.80062
C          C       0.33334   0.66666   0.86604
C          C       0.66666   0.33334   0.13396
C          C       0.00000   1.00000   0.19938
C          C       0.33333   0.66667   0.91757
C          C       0.66667   0.33333   0.08243
C          C       1.00000   0.00000   0.25090
C          C       0.33334   0.66666   0.41576
C          C       0.66666   0.33334   0.58424
C          C       0.00000   1.00000   0.74910
H          H       0.33333   0.66667   0.48893
H          H       0.66667   0.33333   0.51107
H          H       1.00000   0.00000   0.82226
H          H       0.33334   0.66666   0.84440
H          H       0.66666   0.33334   0.15560
H          H       0.00000   1.00000   0.17774
H          H       0.33333   0.66667   0.39411
H          H       0.66667   0.33333   0.60589
H          H       1.00000   0.00000   0.72744
H          H       0.33334   0.66666   0.93922
H          H       0.66666   0.33334   0.06078
H          H       0.00000   1.00000   0.27256
