data_crystal

_cell_length_a    26.29220
_cell_length_b    24.28490
_cell_length_c    18.41250
_cell_angle_alpha 96.80990
_cell_angle_beta  90.00000
_cell_angle_gamma 90.00000

_space_group_name_Hall 'P 1'
_space_group_name_H-M_alt 'P 1'

loop_
_symmetry_equiv_pos_as_xyz
 'x,y,z'

loop_
_atom_site_label
_atom_site_type_symbol
_atom_site_fract_x
_atom_site_fract_y
_atom_site_fract_z
F          F       0.49635   0.79531   0.14535
F          F       0.99635   0.70469   0.35465
F          F       0.50365   0.20469   0.35465
F          F       0.00365   0.29531   0.14535
F          F       0.46029   0.84168   0.05880
F          F       0.96029   0.65832   0.44121
F          F       0.53971   0.15832   0.44121
F          F       0.03971   0.34168   0.05880
F          F       0.53239   0.86762   0.11025
F          F       0.03239   0.63238   0.38975
F          F       0.46761   0.13238   0.38975
F          F       0.96761   0.36762   0.11025
F          F       0.45954   0.87792   0.17435
F          F       0.95954   0.62208   0.32565
F          F       0.54046   0.12208   0.32565
F          F       0.04046   0.37792   0.17435
B          B       0.48550   0.84330   0.12205
B          B       0.98550   0.65670   0.37795
B          B       0.51450   0.15670   0.37795
B          B       0.01450   0.34330   0.12205
N          N       0.45223   0.53214   0.42419
N          N       0.95223   0.96786   0.07581
N          N       0.54777   0.46786   0.07581
N          N       0.04777   0.03214   0.42419
N          N       0.15694   0.47436   0.42393
N          N       0.65694   0.02564   0.07607
N          N       0.84306   0.52564   0.07607
N          N       0.34306   0.97436   0.42393
N          N       0.44061   0.46019   0.04018
N          N       0.94061   0.03981   0.45982
N          N       0.55939   0.53981   0.45982
N          N       0.05939   0.96019   0.04018
N          N       0.54073   0.68565   0.09960
N          N       0.04073   0.81435   0.40041
N          N       0.45927   0.31435   0.40041
N          N       0.95927   0.18565   0.09960
C          C       0.21224   0.47971   0.42975
C          C       0.71224   0.02029   0.07025
C          C       0.78776   0.52029   0.07025
C          C       0.28776   0.97971   0.42975
C          C       0.46767   0.56196   0.36950
C          C       0.96767   0.93804   0.13050
C          C       0.53233   0.43804   0.13050
C          C       0.03233   0.06196   0.36950
C          C       0.40102   0.52166   0.41805
C          C       0.90102   0.97834   0.08195
C          C       0.59898   0.47834   0.08195
C          C       0.09898   0.02166   0.41805
C          C       0.51732   0.57982   0.35825
C          C       0.01732   0.92018   0.14175
C          C       0.48268   0.42018   0.14175
C          C       0.98268   0.07982   0.35825
C          C       0.52554   0.60922   0.29245
C          C       0.02554   0.89078   0.20755
C          C       0.47446   0.39078   0.20755
C          C       0.97446   0.10922   0.29245
C          C       0.31603   0.48760   0.44740
C          C       0.81603   0.01240   0.05260
C          C       0.68397   0.51240   0.05260
C          C       0.18397   0.98760   0.44740
C          C       0.50882   0.68640   0.22415
C          C       0.00882   0.81360   0.27585
C          C       0.49118   0.31360   0.27585
C          C       0.99118   0.18640   0.22415
H          H       0.49390   0.72070   0.22050
H          H       0.99390   0.77930   0.27950
H          H       0.50610   0.27930   0.27950
H          H       0.00610   0.22070   0.22050
C          C       0.39105   0.46081   0.01710
C          C       0.89105   0.03919   0.48290
C          C       0.60895   0.53919   0.48290
C          C       0.10895   0.96081   0.01710
C          C       0.37221   0.49008   0.46180
C          C       0.87221   0.00992   0.03820
C          C       0.62779   0.50992   0.03820
C          C       0.12779   0.99008   0.46180
C          C       0.23241   0.52787   0.46520
C          C       0.73241   0.97213   0.03480
C          C       0.76759   0.47213   0.03480
C          C       0.26759   0.02787   0.46520
H          H       0.21140   0.55720   0.48300
H          H       0.71140   0.94280   0.01700
H          H       0.78860   0.44280   0.01700
H          H       0.28860   0.05720   0.48300
C          C       0.24214   0.43599   0.40070
C          C       0.74214   0.06401   0.09930
C          C       0.75786   0.56401   0.09930
C          C       0.25786   0.93599   0.40070
H          H       0.22760   0.40440   0.37555
H          H       0.72760   0.09560   0.12445
H          H       0.77240   0.59560   0.12445
H          H       0.27240   0.90440   0.37555
C          C       0.50284   0.66062   0.28715
C          C       0.00284   0.83938   0.21285
C          C       0.49716   0.33938   0.21285
C          C       0.99716   0.16062   0.28715
H          H       0.48360   0.67760   0.32590
H          H       0.98360   0.82240   0.17410
H          H       0.51640   0.32240   0.17410
H          H       0.01640   0.17760   0.32590
C          C       0.42374   0.57006   0.32590
C          C       0.92374   0.92994   0.17410
C          C       0.57626   0.42994   0.17410
C          C       0.07626   0.07006   0.32590
H          H       0.42300   0.58850   0.28445
H          H       0.92300   0.91150   0.21555
H          H       0.57700   0.41150   0.21555
H          H       0.07700   0.08850   0.28445
C          C       0.44053   0.42955   0.09795
C          C       0.94053   0.07045   0.40205
C          C       0.55947   0.57045   0.40205
C          C       0.05947   0.92955   0.09795
C          C       0.38341   0.54598   0.35585
C          C       0.88341   0.95402   0.14415
C          C       0.61659   0.45402   0.14415
C          C       0.11659   0.04598   0.35585
H          H       0.35010   0.54550   0.33875
H          H       0.85010   0.95450   0.16125
H          H       0.64990   0.45450   0.16125
H          H       0.14990   0.04550   0.33875
C          C       0.13193   0.43815   0.46325
C          C       0.63193   0.06185   0.03675
C          C       0.86807   0.56185   0.03675
C          C       0.36807   0.93815   0.46325
C          C       0.16159   0.40355   0.00965
C          C       0.66159   0.09645   0.49035
C          C       0.83841   0.59645   0.49035
C          C       0.33841   0.90355   0.00965
C          C       0.13095   0.50505   0.37880
C          C       0.63095   0.99495   0.12120
C          C       0.86905   0.49495   0.12120
C          C       0.36905   0.00505   0.37880
C          C       0.63191   0.70996   0.12560
C          C       0.13191   0.79004   0.37440
C          C       0.36809   0.29004   0.37440
C          C       0.86809   0.20996   0.12560
C          C       0.07966   0.43362   0.45825
C          C       0.57966   0.06638   0.04175
C          C       0.92034   0.56638   0.04175
C          C       0.42034   0.93362   0.45825
H          H       0.06290   0.40830   0.48405
H          H       0.56290   0.09170   0.01595
H          H       0.93710   0.59170   0.01595
H          H       0.43710   0.90830   0.48405
C          C       0.05119   0.46627   0.41515
C          C       0.55119   0.03373   0.08485
C          C       0.94881   0.53373   0.08485
C          C       0.44881   0.96627   0.41515
C          C       0.53729   0.66014   0.16705
C          C       0.03729   0.83986   0.33295
C          C       0.46271   0.33986   0.33295
C          C       0.96271   0.16014   0.16705
C          C       0.55500   0.58462   0.23435
C          C       0.05500   0.91538   0.26565
C          C       0.44500   0.41538   0.26565
C          C       0.94500   0.08462   0.23435
H          H       0.57080   0.55080   0.23805
H          H       0.07080   0.94920   0.26195
H          H       0.42920   0.44920   0.26195
H          H       0.92920   0.05080   0.23805
C          C       0.29457   0.44026   0.40990
C          C       0.79457   0.05974   0.09010
C          C       0.70543   0.55974   0.09010
C          C       0.20543   0.94026   0.40990
H          H       0.31540   0.41120   0.39070
H          H       0.81540   0.08880   0.10930
H          H       0.68460   0.58880   0.10930
H          H       0.18460   0.91120   0.39070
C          C       0.28501   0.53181   0.47395
C          C       0.78501   0.96819   0.02605
C          C       0.71499   0.46819   0.02605
C          C       0.21499   0.03181   0.47395
H          H       0.29940   0.56410   0.49755
H          H       0.79940   0.93590   0.00245
H          H       0.70060   0.43590   0.00245
H          H       0.20060   0.06410   0.49755
C          C       0.58474   0.71108   0.08105
C          C       0.08474   0.78892   0.41895
C          C       0.41526   0.28892   0.41895
C          C       0.91526   0.21108   0.08105
C          C       0.38982   0.40854   0.10990
C          C       0.88982   0.09146   0.39010
C          C       0.61018   0.59146   0.39010
C          C       0.11018   0.90854   0.10990
H          H       0.38040   0.38590   0.14500
H          H       0.88040   0.11410   0.35500
H          H       0.61960   0.61410   0.35500
H          H       0.11960   0.88590   0.14500
C          C       0.07865   0.50188   0.37560
C          C       0.57865   0.99812   0.12440
C          C       0.92135   0.49812   0.12440
C          C       0.42135   0.00188   0.37560
H          H       0.06110   0.52410   0.34625
H          H       0.56110   0.97590   0.15375
H          H       0.93890   0.47590   0.15375
H          H       0.43890   0.02410   0.34625
C          C       0.56102   0.60991   0.17130
C          C       0.06102   0.89009   0.32870
C          C       0.43898   0.39009   0.32870
C          C       0.93898   0.10991   0.17130
H          H       0.58060   0.59340   0.13265
H          H       0.08060   0.90660   0.36735
H          H       0.41940   0.40660   0.36735
H          H       0.91940   0.09340   0.13265
C          C       0.54151   0.74189   0.47650
C          C       0.04151   0.75811   0.02350
C          C       0.45849   0.25811   0.02350
C          C       0.95849   0.24189   0.47650
C          C       0.15848   0.34631   0.49445
C          C       0.65848   0.15369   0.00555
C          C       0.84152   0.65369   0.00555
C          C       0.34152   0.84631   0.49445
H          H       0.13730   0.33050   0.45720
H          H       0.63730   0.16950   0.04280
H          H       0.86270   0.66950   0.04280
H          H       0.36270   0.83050   0.45720
C          C       0.19169   0.42678   0.06770
C          C       0.69169   0.07322   0.43230
C          C       0.80831   0.57322   0.43230
C          C       0.30831   0.92678   0.06770
H          H       0.19320   0.46510   0.07910
H          H       0.69320   0.03490   0.42090
H          H       0.80680   0.53490   0.42090
H          H       0.30680   0.96510   0.07910
C          C       0.67800   0.70267   0.08780
C          C       0.17800   0.79733   0.41220
C          C       0.32200   0.29733   0.41220
C          C       0.82200   0.20267   0.08780
H          H       0.67810   0.69720   0.03695
H          H       0.17810   0.80280   0.46305
H          H       0.32190   0.30280   0.46305
H          H       0.82190   0.19720   0.03695
C          C       0.63287   0.71929   0.20135
C          C       0.13287   0.78071   0.29865
C          C       0.36713   0.28071   0.29865
C          C       0.86713   0.21929   0.20135
H          H       0.60250   0.72520   0.22700
H          H       0.10250   0.77480   0.27300
H          H       0.39750   0.27480   0.27300
H          H       0.89750   0.22520   0.22700
C          C       0.49777   0.68666   0.05760
C          C       0.99777   0.81334   0.44240
C          C       0.50223   0.31334   0.44240
C          C       0.00223   0.18666   0.05760
C          C       0.72408   0.71182   0.20150
C          C       0.22408   0.78818   0.29850
C          C       0.27592   0.28818   0.29850
C          C       0.77592   0.21182   0.20150
H          H       0.75470   0.71190   0.22680
H          H       0.25470   0.78810   0.27320
H          H       0.24530   0.28810   0.27320
H          H       0.74530   0.21190   0.22680
C          C       0.15991   0.54027   0.33265
C          C       0.65991   0.95973   0.16735
C          C       0.84009   0.45973   0.16735
C          C       0.34009   0.04027   0.33265
C          C       0.35926   0.42810   0.06045
C          C       0.85926   0.07190   0.43955
C          C       0.64074   0.57190   0.43955
C          C       0.14074   0.92810   0.06045
H          H       0.32450   0.42190   0.05495
H          H       0.82450   0.07810   0.44505
H          H       0.67550   0.57810   0.44505
H          H       0.17550   0.92190   0.05495
C          C       0.99506   0.46231   0.41120
C          C       0.49506   0.03769   0.08880
C          C       0.00494   0.53769   0.08880
C          C       0.50494   0.96231   0.41120
C          C       0.54113   0.77470   0.41410
C          C       0.04113   0.72530   0.08590
C          C       0.45887   0.22530   0.08590
C          C       0.95887   0.27470   0.41410
C          C       0.96837   0.42967   0.45625
C          C       0.46837   0.07033   0.04375
C          C       0.03163   0.57033   0.04375
C          C       0.53163   0.92967   0.45625
H          H       0.98590   0.41180   0.49050
H          H       0.48590   0.08820   0.00950
H          H       0.01410   0.58820   0.00950
H          H       0.51410   0.91180   0.49050
C          C       0.67858   0.71993   0.23940
C          C       0.17858   0.78007   0.26060
C          C       0.32142   0.28007   0.26060
C          C       0.82142   0.21993   0.23940
H          H       0.67870   0.72580   0.29025
H          H       0.17870   0.77420   0.20975
H          H       0.32130   0.27420   0.20975
H          H       0.82130   0.22580   0.29025
C          C       0.49836   0.71396   0.49615
C          C       0.99836   0.78604   0.00385
C          C       0.50164   0.28604   0.00385
C          C       0.00164   0.21396   0.49615
H          H       0.46930   0.71370   0.46720
H          H       0.96930   0.78630   0.03280
H          H       0.53070   0.28630   0.03280
H          H       0.03070   0.21370   0.46720
C          C       0.21947   0.39249   0.10865
C          C       0.71947   0.10751   0.39135
C          C       0.78053   0.60751   0.39135
C          C       0.28053   0.89249   0.10865
H          H       0.23920   0.40800   0.14770
H          H       0.73920   0.09200   0.35230
H          H       0.76080   0.59200   0.35230
H          H       0.26080   0.90800   0.14770
C          C       0.44969   0.66131   0.08090
C          C       0.94969   0.83869   0.41910
C          C       0.55031   0.33869   0.41910
C          C       0.05031   0.16131   0.08090
C          C       0.18702   0.31251   0.03500
C          C       0.68702   0.18749   0.46500
C          C       0.81298   0.68749   0.46500
C          C       0.31298   0.81251   0.03500
H          H       0.18540   0.27420   0.02410
H          H       0.68540   0.22580   0.47590
H          H       0.81460   0.72580   0.47590
H          H       0.31460   0.77420   0.02410
C          C       0.19194   0.51643   0.27770
C          C       0.69194   0.98357   0.22230
C          C       0.80806   0.48357   0.22230
C          C       0.30806   0.01643   0.27770
H          H       0.19650   0.47820   0.27060
H          H       0.69650   0.02180   0.22940
H          H       0.80350   0.52180   0.22940
H          H       0.30350   0.97820   0.27060
C          C       0.58455   0.73909   0.01995
C          C       0.08455   0.76091   0.48005
C          C       0.41545   0.26091   0.48005
C          C       0.91545   0.23909   0.01995
H          H       0.61420   0.75670   0.00745
H          H       0.11420   0.74330   0.49255
H          H       0.38580   0.24330   0.49255
H          H       0.88580   0.25670   0.00745
C          C       0.91591   0.42383   0.45025
C          C       0.41591   0.07617   0.04975
C          C       0.08409   0.57617   0.04975
C          C       0.58409   0.92383   0.45025
H          H       0.89850   0.40180   0.48005
H          H       0.39850   0.09820   0.01995
H          H       0.10150   0.59820   0.01995
H          H       0.60150   0.90180   0.48005
C          C       0.58659   0.78657   0.38060
C          C       0.08659   0.71343   0.11940
C          C       0.41341   0.21343   0.11940
C          C       0.91341   0.28657   0.38060
H          H       0.61700   0.77270   0.39660
H          H       0.11700   0.72730   0.10340
H          H       0.38300   0.22730   0.10340
H          H       0.88300   0.27270   0.39660
C          C       0.21777   0.33567   0.09150
C          C       0.71777   0.16433   0.40850
C          C       0.78223   0.66433   0.40850
C          C       0.28223   0.83567   0.09150
H          H       0.23730   0.31300   0.11785
H          H       0.73730   0.18700   0.38215
H          H       0.76270   0.68700   0.38215
H          H       0.26270   0.81300   0.11785
C          C       0.44651   0.60615   0.09565
C          C       0.94651   0.89385   0.40435
C          C       0.55349   0.39385   0.40435
C          C       0.05349   0.10615   0.09565
H          H       0.47480   0.58310   0.08975
H          H       0.97480   0.91690   0.41025
H          H       0.52520   0.41690   0.41025
H          H       0.02520   0.08310   0.08975
C          C       0.72365   0.70363   0.12610
C          C       0.22365   0.79637   0.37390
C          C       0.27635   0.29637   0.37390
C          C       0.77635   0.20363   0.12610
H          H       0.75420   0.69870   0.10065
H          H       0.25420   0.80130   0.39935
H          H       0.24580   0.30130   0.39935
H          H       0.74580   0.19870   0.10065
C          C       0.49556   0.79541   0.38850
C          C       0.99556   0.70459   0.11150
C          C       0.50444   0.20459   0.11150
C          C       0.00444   0.29541   0.38850
H          H       0.46490   0.78780   0.41035
H          H       0.96490   0.71220   0.08965
H          H       0.53510   0.21220   0.08965
H          H       0.03510   0.28780   0.41035
C          C       0.88958   0.45087   0.39975
C          C       0.38958   0.04913   0.10025
C          C       0.11042   0.54913   0.10025
C          C       0.61042   0.95087   0.39975
H          H       0.85460   0.44630   0.39480
H          H       0.35460   0.05370   0.10520
H          H       0.14540   0.55370   0.10520
H          H       0.64540   0.94630   0.39480
C          C       0.96777   0.49063   0.36230
C          C       0.46777   0.00937   0.13770
C          C       0.03223   0.50937   0.13770
C          C       0.53223   0.99063   0.36230
H          H       0.98470   0.51360   0.33335
H          H       0.48470   0.98640   0.16665
H          H       0.01530   0.48640   0.16665
H          H       0.51530   0.01360   0.33335
C          C       0.54164   0.83896   0.29820
C          C       0.04164   0.66104   0.20180
C          C       0.45836   0.16104   0.20180
C          C       0.95836   0.33896   0.29820
H          H       0.54190   0.86030   0.25945
H          H       0.04190   0.63970   0.24055
H          H       0.45810   0.13970   0.24055
H          H       0.95810   0.36030   0.25945
C          C       0.15312   0.59717   0.34340
C          C       0.65312   0.90283   0.15660
C          C       0.84688   0.40283   0.15660
C          C       0.34688   0.09717   0.34340
H          H       0.13120   0.61300   0.37965
H          H       0.63120   0.88700   0.12035
H          H       0.86880   0.38700   0.12035
H          H       0.36880   0.11300   0.37965
C          C       0.49617   0.82709   0.33075
C          C       0.99617   0.67291   0.16925
C          C       0.50383   0.17291   0.16925
C          C       0.00383   0.32709   0.33075
H          H       0.46580   0.84050   0.31380
H          H       0.96580   0.65950   0.18620
H          H       0.53420   0.15950   0.18620
H          H       0.03420   0.34050   0.31380
C          C       0.58672   0.81894   0.32345
C          C       0.08672   0.68106   0.17655
C          C       0.41328   0.18106   0.17655
C          C       0.91328   0.31894   0.32345
H          H       0.61730   0.82720   0.30195
H          H       0.11730   0.67280   0.19805
H          H       0.38270   0.17280   0.19805
H          H       0.88270   0.32720   0.30195
C          C       0.91522   0.48467   0.35675
C          C       0.41522   0.01533   0.14325
C          C       0.08478   0.51533   0.14325
C          C       0.58478   0.98467   0.35675
H          H       0.89730   0.50350   0.32390
H          H       0.39730   0.99650   0.17610
H          H       0.10270   0.49650   0.17610
H          H       0.60270   0.00350   0.32390
C          C       0.40055   0.58620   0.11925
C          C       0.90055   0.91380   0.38075
C          C       0.59945   0.41380   0.38075
C          C       0.09945   0.08620   0.11925
H          H       0.39850   0.54990   0.13050
H          H       0.89850   0.95010   0.36950
H          H       0.60150   0.45010   0.36950
H          H       0.10150   0.04990   0.13050
C          C       0.21709   0.55009   0.23345
C          C       0.71709   0.94991   0.26655
C          C       0.78291   0.44991   0.26655
C          C       0.28291   0.05009   0.23345
H          H       0.23830   0.53440   0.19620
H          H       0.73830   0.96560   0.30380
H          H       0.76170   0.46560   0.30380
H          H       0.26170   0.03440   0.19620
C          C       0.17913   0.63043   0.30005
C          C       0.67913   0.86957   0.19995
C          C       0.82087   0.36957   0.19995
C          C       0.32087   0.13043   0.30005
H          H       0.17540   0.66870   0.30820
H          H       0.67540   0.83130   0.19180
H          H       0.82460   0.33130   0.19180
H          H       0.32460   0.16870   0.30820
C          C       0.40698   0.69377   0.08605
C          C       0.90698   0.80623   0.41395
C          C       0.59302   0.30623   0.41395
C          C       0.09302   0.19377   0.08605
H          H       0.40860   0.72990   0.07430
H          H       0.90860   0.77010   0.42570
H          H       0.59140   0.27010   0.42570
H          H       0.09140   0.22990   0.07430
C          C       0.21047   0.60726   0.24490
C          C       0.71047   0.89274   0.25510
C          C       0.78953   0.39274   0.25510
C          C       0.28953   0.10726   0.24490
H          H       0.22730   0.62990   0.21530
H          H       0.72730   0.87010   0.28470
H          H       0.77270   0.37010   0.28470
H          H       0.27270   0.12990   0.21530
C          C       0.35832   0.61944   0.12610
C          C       0.85832   0.88056   0.37390
C          C       0.64168   0.38056   0.37390
C          C       0.14168   0.11944   0.12610
H          H       0.32780   0.60590   0.14240
H          H       0.82780   0.89410   0.35760
H          H       0.67220   0.39410   0.35760
H          H       0.17220   0.10590   0.14240
C          C       0.36100   0.67278   0.10880
C          C       0.86100   0.82722   0.39120
C          C       0.63900   0.32722   0.39120
C          C       0.13900   0.17278   0.10880
H          H       0.33210   0.69500   0.11230
H          H       0.83210   0.80500   0.38770
H          H       0.66790   0.30500   0.38770
H          H       0.16790   0.19500   0.11230
H          H       0.47170   0.52050   0.45600
H          H       0.97170   0.97950   0.04400
H          H       0.52830   0.47950   0.04400
H          H       0.02830   0.02050   0.45600
F          F       0.26341   0.67923   0.00630
F          F       0.76341   0.82077   0.49370
F          F       0.73659   0.32077   0.49370
F          F       0.23659   0.17923   0.00630
F          F       0.19598   0.73000   0.04660
F          F       0.69598   0.77000   0.45340
F          F       0.80402   0.27000   0.45340
F          F       0.30402   0.23000   0.04660
F          F       0.24705   0.70196   0.13250
F          F       0.74705   0.79804   0.36750
F          F       0.75295   0.29804   0.36750
F          F       0.25295   0.20196   0.13250
F          F       0.19372   0.64014   0.06885
F          F       0.69372   0.85986   0.43115
F          F       0.80628   0.35986   0.43115
F          F       0.30628   0.14014   0.06885
B          B       0.22570   0.68470   0.06680
B          B       0.72570   0.81530   0.43320
B          B       0.77430   0.31530   0.43320
B          B       0.27430   0.18470   0.06680
N          N       0.61320   0.28291   0.10495
N          N       0.11320   0.21709   0.39505
N          N       0.38680   0.71709   0.39505
N          N       0.88680   0.78291   0.10495
C          C       0.64960   0.30401   0.12410
C          C       0.14960   0.19599   0.37590
C          C       0.35040   0.69599   0.37590
C          C       0.85040   0.80401   0.12410
C          C       0.69569   0.33158   0.15095
C          C       0.19569   0.16842   0.34905
C          C       0.30431   0.66842   0.34905
C          C       0.80431   0.83158   0.15095
H          H       0.68820   0.35670   0.19390
H          H       0.18820   0.14330   0.30610
H          H       0.31180   0.64330   0.30610
H          H       0.81180   0.85670   0.19390
H          H       0.70960   0.35190   0.11395
H          H       0.20960   0.14810   0.38605
H          H       0.29040   0.64810   0.38605
H          H       0.79040   0.85190   0.11395
H          H       0.71990   0.30450   0.16290
H          H       0.21990   0.19550   0.33710
H          H       0.28010   0.69550   0.33710
H          H       0.78010   0.80450   0.16290
C          C       0.36110   0.84100   0.26265
C          C       0.86110   0.65900   0.23735
C          C       0.63890   0.15900   0.23735
C          C       0.13890   0.34100   0.26265
N          N       0.35060   0.87870   0.29885
N          N       0.85060   0.62130   0.20115
N          N       0.64940   0.12130   0.20115
N          N       0.14940   0.37870   0.29885
C          C       0.37705   0.79160   0.21525
C          C       0.87705   0.70840   0.28475
C          C       0.62295   0.20840   0.28475
C          C       0.12295   0.29160   0.21525
H          H       0.39650   0.76800   0.24310
H          H       0.89650   0.73200   0.25690
H          H       0.60350   0.23200   0.25690
H          H       0.10350   0.26800   0.24310
H          H       0.39760   0.80240   0.17620
H          H       0.89760   0.69760   0.32380
H          H       0.60240   0.19760   0.32380
H          H       0.10240   0.30240   0.17620
H          H       0.34760   0.77200   0.19520
H          H       0.84760   0.72800   0.30480
H          H       0.65240   0.22800   0.30480
H          H       0.15240   0.27200   0.19520
H          H       0.17953   0.66713   0.04990
H          H       0.67953   0.83287   0.45010
H          H       0.82047   0.33287   0.45010
H          H       0.32047   0.16713   0.04990
H          H       0.50774   0.89695   0.21160
H          H       0.00774   0.60305   0.28840
H          H       0.49226   0.10305   0.28840
H          H       0.99226   0.39695   0.21160
H          H       0.22950   0.63508   0.13395
H          H       0.72950   0.86492   0.36605
H          H       0.77050   0.36492   0.36605
H          H       0.27050   0.13508   0.13395
H          H       0.39840   0.86900   0.25869
H          H       0.89840   0.63100   0.24131
H          H       0.60160   0.13100   0.24131
H          H       0.10160   0.36900   0.25869
H          H       0.43222   0.84771   0.17651
H          H       0.93222   0.65229   0.32349
H          H       0.56778   0.15229   0.32349
H          H       0.06778   0.34771   0.17651
H          H       0.36458   0.84771   0.17651
H          H       0.86458   0.65229   0.32349
H          H       0.63542   0.15229   0.32349
H          H       0.13542   0.34771   0.17651
H          H       0.39840   0.91158   0.18649
H          H       0.89840   0.58842   0.31351
H          H       0.60160   0.08842   0.31351
H          H       0.10160   0.41158   0.18649
H          H       0.22100   0.68020   0.10836
H          H       0.72100   0.81980   0.39164
H          H       0.77900   0.31980   0.39164
H          H       0.27900   0.18020   0.10836
H          H       0.21463   0.72705   0.13920
H          H       0.71463   0.77295   0.36080
H          H       0.78537   0.27295   0.36080
H          H       0.28537   0.22705   0.13920
H          H       0.50510   0.85100   0.17381
H          H       0.00510   0.64900   0.32619
H          H       0.49490   0.14900   0.32619
H          H       0.99490   0.35100   0.17381
H          H       0.54190   0.82783   0.08437
H          H       0.04190   0.67217   0.41563
H          H       0.45810   0.17217   0.41563
H          H       0.95810   0.32783   0.08437
H          H       0.34050   0.85070   0.36193
H          H       0.84050   0.64930   0.13807
H          H       0.65950   0.14930   0.13807
H          H       0.15950   0.35070   0.36193
H          H       0.30898   0.83086   0.28532
H          H       0.80898   0.66914   0.21468
H          H       0.69102   0.16914   0.21468
H          H       0.19102   0.33086   0.28532
H          H       0.36730   0.85980   0.32014
H          H       0.86730   0.64020   0.17986
H          H       0.63270   0.14020   0.17986
H          H       0.13270   0.35980   0.32014
H          H       0.40112   0.83851   0.23796
H          H       0.90112   0.66149   0.26204
H          H       0.59888   0.16149   0.26204
H          H       0.09888   0.33851   0.23796
H          H       0.33348   0.83851   0.23796
H          H       0.83348   0.66149   0.26204
H          H       0.66652   0.16149   0.26204
H          H       0.16652   0.33851   0.23796
H          H       0.36730   0.90238   0.24794
H          H       0.86730   0.59762   0.25206
H          H       0.63270   0.09762   0.25206
H          H       0.13270   0.40238   0.24794
F          F       0.17953   0.66713   0.00010
F          F       0.67953   0.83287   0.49990
F          F       0.82047   0.33287   0.49990
F          F       0.32047   0.16713   0.00010
F          F       0.55124   0.85084   0.06880
F          F       0.05124   0.64916   0.43120
F          F       0.44876   0.14916   0.43120
F          F       0.94876   0.35084   0.06880
F          F       0.50774   0.89695   0.16180
F          F       0.00774   0.60305   0.33820
F          F       0.49226   0.10305   0.33820
F          F       0.99226   0.39695   0.16180
F          F       0.22950   0.63508   0.08415
F          F       0.72950   0.86492   0.41585
F          F       0.77050   0.36492   0.41585
F          F       0.27050   0.13508   0.08415
F          F       0.21463   0.72705   0.08940
F          F       0.71463   0.77295   0.41060
F          F       0.78537   0.27295   0.41060
F          F       0.28537   0.22705   0.08940
C          C       0.39840   0.86900   0.19955
C          C       0.89840   0.63100   0.30045
C          C       0.60160   0.13100   0.30045
C          C       0.10160   0.36900   0.19955
H          H       0.42450   0.89540   0.21520
H          H       0.92450   0.60460   0.28480
H          H       0.57550   0.10460   0.28480
H          H       0.07550   0.39540   0.21520
H          H       0.37780   0.88310   0.16290
H          H       0.87780   0.61690   0.33710
H          H       0.62220   0.11690   0.33710
H          H       0.12220   0.38310   0.16290
N          N       0.34050   0.85070   0.30680
N          N       0.84050   0.64930   0.19320
N          N       0.65950   0.14930   0.19320
N          N       0.15950   0.35070   0.30680
F          F       0.49635   0.79531   0.64534
F          F       0.99635   0.70469   0.85466
F          F       0.50365   0.20469   0.85465
F          F       0.00365   0.29531   0.64535
F          F       0.46029   0.84168   0.55879
F          F       0.96029   0.65832   0.94121
F          F       0.53971   0.15832   0.94121
F          F       0.03971   0.34168   0.55879
F          F       0.53239   0.86762   0.61025
F          F       0.03239   0.63238   0.88975
F          F       0.46761   0.13238   0.88975
F          F       0.96761   0.36762   0.61025
F          F       0.45954   0.87792   0.67435
F          F       0.95954   0.62208   0.82565
F          F       0.54046   0.12208   0.82565
F          F       0.04046   0.37792   0.67435
B          B       0.48550   0.84330   0.62205
B          B       0.98550   0.65670   0.87795
B          B       0.51450   0.15670   0.87795
B          B       0.01450   0.34330   0.62205
N          N       0.45223   0.53214   0.92419
N          N       0.95223   0.96786   0.57581
N          N       0.54777   0.46786   0.57581
N          N       0.04777   0.03214   0.92419
N          N       0.15694   0.47436   0.92393
N          N       0.65694   0.02564   0.57607
N          N       0.84306   0.52564   0.57607
N          N       0.34306   0.97436   0.92393
N          N       0.44061   0.46019   0.54018
N          N       0.94061   0.03981   0.95982
N          N       0.55939   0.53981   0.95982
N          N       0.05939   0.96019   0.54018
N          N       0.54073   0.68565   0.59960
N          N       0.04073   0.81435   0.90041
N          N       0.45927   0.31435   0.90041
N          N       0.95927   0.18565   0.59959
C          C       0.21224   0.47971   0.92975
C          C       0.71224   0.02029   0.57025
C          C       0.78776   0.52029   0.57025
C          C       0.28776   0.97971   0.92975
C          C       0.46767   0.56196   0.86950
C          C       0.96767   0.93804   0.63050
C          C       0.53233   0.43804   0.63050
C          C       0.03233   0.06196   0.86950
C          C       0.40102   0.52166   0.91805
C          C       0.90102   0.97834   0.58195
C          C       0.59898   0.47834   0.58195
C          C       0.09898   0.02166   0.91805
C          C       0.51732   0.57982   0.85825
C          C       0.01732   0.92018   0.64175
C          C       0.48268   0.42018   0.64175
C          C       0.98268   0.07982   0.85825
C          C       0.52554   0.60922   0.79245
C          C       0.02554   0.89078   0.70755
C          C       0.47446   0.39078   0.70755
C          C       0.97446   0.10922   0.79245
C          C       0.31603   0.48760   0.94740
C          C       0.81603   0.01240   0.55260
C          C       0.68397   0.51240   0.55260
C          C       0.18397   0.98760   0.94740
C          C       0.50882   0.68640   0.72415
C          C       0.00882   0.81360   0.77585
C          C       0.49118   0.31360   0.77585
C          C       0.99118   0.18640   0.72415
H          H       0.49390   0.72070   0.72050
H          H       0.99390   0.77930   0.77950
H          H       0.50610   0.27930   0.77950
H          H       0.00610   0.22070   0.72050
C          C       0.39105   0.46081   0.51710
C          C       0.89105   0.03919   0.98290
C          C       0.60895   0.53919   0.98290
C          C       0.10895   0.96081   0.51710
C          C       0.37221   0.49008   0.96180
C          C       0.87221   0.00992   0.53820
C          C       0.62779   0.50992   0.53820
C          C       0.12779   0.99008   0.96180
C          C       0.23241   0.52787   0.96520
C          C       0.73241   0.97213   0.53480
C          C       0.76759   0.47213   0.53480
C          C       0.26759   0.02787   0.96520
H          H       0.21140   0.55720   0.98300
H          H       0.71140   0.94280   0.51700
H          H       0.78860   0.44280   0.51700
H          H       0.28860   0.05720   0.98300
C          C       0.24214   0.43599   0.90070
C          C       0.74214   0.06401   0.59930
C          C       0.75786   0.56401   0.59930
C          C       0.25786   0.93599   0.90070
H          H       0.22760   0.40440   0.87555
H          H       0.72760   0.09560   0.62445
H          H       0.77240   0.59560   0.62445
H          H       0.27240   0.90440   0.87555
C          C       0.50284   0.66062   0.78715
C          C       0.00284   0.83938   0.71285
C          C       0.49716   0.33938   0.71285
C          C       0.99716   0.16062   0.78715
H          H       0.48360   0.67760   0.82590
H          H       0.98360   0.82240   0.67410
H          H       0.51640   0.32240   0.67410
H          H       0.01640   0.17760   0.82590
C          C       0.42374   0.57006   0.82590
C          C       0.92374   0.92994   0.67410
C          C       0.57626   0.42994   0.67410
C          C       0.07626   0.07006   0.82590
H          H       0.42300   0.58850   0.78445
H          H       0.92300   0.91150   0.71555
H          H       0.57700   0.41150   0.71555
H          H       0.07700   0.08850   0.78445
C          C       0.44053   0.42955   0.59795
C          C       0.94053   0.07045   0.90205
C          C       0.55947   0.57045   0.90205
C          C       0.05947   0.92955   0.59795
C          C       0.38341   0.54598   0.85585
C          C       0.88341   0.95402   0.64415
C          C       0.61659   0.45402   0.64415
C          C       0.11659   0.04598   0.85585
H          H       0.35010   0.54550   0.83875
H          H       0.85010   0.95450   0.66125
H          H       0.64990   0.45450   0.66125
H          H       0.14990   0.04550   0.83875
C          C       0.13193   0.43815   0.96325
C          C       0.63193   0.06185   0.53675
C          C       0.86807   0.56185   0.53675
C          C       0.36807   0.93815   0.96325
C          C       0.16159   0.40355   0.50965
C          C       0.66159   0.09645   0.99035
C          C       0.83841   0.59645   0.99035
C          C       0.33841   0.90355   0.50965
C          C       0.13095   0.50505   0.87880
C          C       0.63095   0.99495   0.62120
C          C       0.86905   0.49495   0.62120
C          C       0.36905   0.00505   0.87880
C          C       0.63191   0.70996   0.62560
C          C       0.13191   0.79004   0.87440
C          C       0.36809   0.29004   0.87440
C          C       0.86809   0.20996   0.62560
C          C       0.07966   0.43362   0.95825
C          C       0.57966   0.06638   0.54175
C          C       0.92034   0.56638   0.54175
C          C       0.42034   0.93362   0.95825
H          H       0.06290   0.40830   0.98405
H          H       0.56290   0.09170   0.51595
H          H       0.93710   0.59170   0.51595
H          H       0.43710   0.90830   0.98405
C          C       0.05119   0.46627   0.91515
C          C       0.55119   0.03373   0.58485
C          C       0.94881   0.53373   0.58485
C          C       0.44881   0.96627   0.91515
C          C       0.53729   0.66014   0.66705
C          C       0.03729   0.83986   0.83295
C          C       0.46271   0.33986   0.83295
C          C       0.96271   0.16014   0.66705
C          C       0.55500   0.58462   0.73435
C          C       0.05500   0.91538   0.76565
C          C       0.44500   0.41538   0.76565
C          C       0.94500   0.08462   0.73435
H          H       0.57080   0.55080   0.73805
H          H       0.07080   0.94920   0.76195
H          H       0.42920   0.44920   0.76195
H          H       0.92920   0.05080   0.73805
C          C       0.29457   0.44026   0.90990
C          C       0.79457   0.05974   0.59010
C          C       0.70543   0.55974   0.59010
C          C       0.20543   0.94026   0.90990
H          H       0.31540   0.41120   0.89070
H          H       0.81540   0.08880   0.60930
H          H       0.68460   0.58880   0.60930
H          H       0.18460   0.91120   0.89070
C          C       0.28501   0.53181   0.97395
C          C       0.78501   0.96819   0.52605
C          C       0.71499   0.46819   0.52605
C          C       0.21499   0.03181   0.97395
H          H       0.29940   0.56410   0.99755
H          H       0.79940   0.93590   0.50245
H          H       0.70060   0.43590   0.50245
H          H       0.20060   0.06410   0.99755
C          C       0.58474   0.71108   0.58105
C          C       0.08474   0.78892   0.91895
C          C       0.41526   0.28892   0.91895
C          C       0.91526   0.21108   0.58105
C          C       0.38982   0.40854   0.60990
C          C       0.88982   0.09146   0.89010
C          C       0.61018   0.59146   0.89010
C          C       0.11018   0.90854   0.60990
H          H       0.38040   0.38590   0.64500
H          H       0.88040   0.11410   0.85500
H          H       0.61960   0.61410   0.85500
H          H       0.11960   0.88590   0.64500
C          C       0.07865   0.50188   0.87560
C          C       0.57865   0.99812   0.62440
C          C       0.92135   0.49812   0.62440
C          C       0.42135   0.00188   0.87560
H          H       0.06110   0.52410   0.84625
H          H       0.56110   0.97590   0.65375
H          H       0.93890   0.47590   0.65375
H          H       0.43890   0.02410   0.84625
C          C       0.56102   0.60991   0.67130
C          C       0.06102   0.89009   0.82870
C          C       0.43898   0.39009   0.82870
C          C       0.93898   0.10991   0.67130
H          H       0.58060   0.59340   0.63265
H          H       0.08060   0.90660   0.86735
H          H       0.41940   0.40660   0.86735
H          H       0.91940   0.09340   0.63265
C          C       0.54151   0.74189   0.97650
C          C       0.04151   0.75811   0.52350
C          C       0.45849   0.25811   0.52350
C          C       0.95849   0.24189   0.97650
C          C       0.15848   0.34631   0.99445
C          C       0.65848   0.15369   0.50555
C          C       0.84152   0.65369   0.50555
C          C       0.34152   0.84631   0.99445
H          H       0.13730   0.33050   0.95720
H          H       0.63730   0.16950   0.54280
H          H       0.86270   0.66950   0.54280
H          H       0.36270   0.83050   0.95720
C          C       0.19169   0.42678   0.56770
C          C       0.69169   0.07322   0.93230
C          C       0.80831   0.57322   0.93230
C          C       0.30831   0.92678   0.56770
H          H       0.19320   0.46510   0.57910
H          H       0.69320   0.03490   0.92090
H          H       0.80680   0.53490   0.92090
H          H       0.30680   0.96510   0.57910
C          C       0.67800   0.70267   0.58780
C          C       0.17800   0.79733   0.91220
C          C       0.32200   0.29733   0.91220
C          C       0.82200   0.20267   0.58780
H          H       0.67810   0.69720   0.53695
H          H       0.17810   0.80280   0.96305
H          H       0.32190   0.30280   0.96305
H          H       0.82190   0.19720   0.53695
C          C       0.63287   0.71929   0.70135
C          C       0.13287   0.78071   0.79865
C          C       0.36713   0.28071   0.79865
C          C       0.86713   0.21929   0.70135
H          H       0.60250   0.72520   0.72700
H          H       0.10250   0.77480   0.77300
H          H       0.39750   0.27480   0.77300
H          H       0.89750   0.22520   0.72700
C          C       0.49777   0.68666   0.55760
C          C       0.99777   0.81334   0.94240
C          C       0.50223   0.31334   0.94240
C          C       0.00223   0.18666   0.55760
C          C       0.72408   0.71182   0.70150
C          C       0.22408   0.78818   0.79850
C          C       0.27592   0.28818   0.79850
C          C       0.77592   0.21182   0.70150
H          H       0.75470   0.71190   0.72680
H          H       0.25470   0.78810   0.77320
H          H       0.24530   0.28810   0.77320
H          H       0.74530   0.21190   0.72680
C          C       0.15991   0.54027   0.83265
C          C       0.65991   0.95973   0.66735
C          C       0.84009   0.45973   0.66735
C          C       0.34009   0.04027   0.83265
C          C       0.35926   0.42810   0.56045
C          C       0.85926   0.07190   0.93955
C          C       0.64074   0.57190   0.93955
C          C       0.14074   0.92810   0.56045
H          H       0.32450   0.42190   0.55495
H          H       0.82450   0.07810   0.94505
H          H       0.67550   0.57810   0.94505
H          H       0.17550   0.92190   0.55495
C          C       0.99506   0.46231   0.91120
C          C       0.49506   0.03769   0.58880
C          C       0.00494   0.53769   0.58880
C          C       0.50494   0.96231   0.91120
C          C       0.54113   0.77470   0.91410
C          C       0.04113   0.72530   0.58590
C          C       0.45887   0.22530   0.58590
C          C       0.95887   0.27470   0.91410
C          C       0.96837   0.42967   0.95625
C          C       0.46837   0.07033   0.54375
C          C       0.03163   0.57033   0.54375
C          C       0.53163   0.92967   0.95625
H          H       0.98590   0.41180   0.99050
H          H       0.48590   0.08820   0.50950
H          H       0.01410   0.58820   0.50950
H          H       0.51410   0.91180   0.99050
C          C       0.67858   0.71993   0.73940
C          C       0.17858   0.78007   0.76060
C          C       0.32142   0.28007   0.76060
C          C       0.82142   0.21993   0.73940
H          H       0.67870   0.72580   0.79025
H          H       0.17870   0.77420   0.70975
H          H       0.32130   0.27420   0.70975
H          H       0.82130   0.22580   0.79025
C          C       0.49836   0.71396   0.99615
C          C       0.99836   0.78604   0.50385
C          C       0.50164   0.28604   0.50385
C          C       0.00164   0.21396   0.99615
H          H       0.46930   0.71370   0.96720
H          H       0.96930   0.78630   0.53280
H          H       0.53070   0.28630   0.53280
H          H       0.03070   0.21370   0.96720
C          C       0.21947   0.39249   0.60865
C          C       0.71947   0.10751   0.89135
C          C       0.78053   0.60751   0.89135
C          C       0.28053   0.89249   0.60865
H          H       0.23920   0.40800   0.64770
H          H       0.73920   0.09200   0.85230
H          H       0.76080   0.59200   0.85230
H          H       0.26080   0.90800   0.64770
C          C       0.44969   0.66131   0.58090
C          C       0.94969   0.83869   0.91910
C          C       0.55031   0.33869   0.91910
C          C       0.05031   0.16131   0.58090
C          C       0.18702   0.31251   0.53500
C          C       0.68702   0.18749   0.96500
C          C       0.81298   0.68749   0.96500
C          C       0.31298   0.81251   0.53500
H          H       0.18540   0.27420   0.52410
H          H       0.68540   0.22580   0.97590
H          H       0.81460   0.72580   0.97590
H          H       0.31460   0.77420   0.52410
C          C       0.19194   0.51643   0.77770
C          C       0.69194   0.98357   0.72230
C          C       0.80806   0.48357   0.72230
C          C       0.30806   0.01643   0.77770
H          H       0.19650   0.47820   0.77060
H          H       0.69650   0.02180   0.72940
H          H       0.80350   0.52180   0.72940
H          H       0.30350   0.97820   0.77060
C          C       0.58455   0.73909   0.51995
C          C       0.08455   0.76091   0.98005
C          C       0.41545   0.26091   0.98005
C          C       0.91545   0.23909   0.51995
H          H       0.61420   0.75670   0.50745
H          H       0.11420   0.74330   0.99255
H          H       0.38580   0.24330   0.99255
H          H       0.88580   0.25670   0.50745
C          C       0.91591   0.42383   0.95025
C          C       0.41591   0.07617   0.54975
C          C       0.08409   0.57617   0.54975
C          C       0.58409   0.92383   0.95025
H          H       0.89850   0.40180   0.98005
H          H       0.39850   0.09820   0.51995
H          H       0.10150   0.59820   0.51995
H          H       0.60150   0.90180   0.98005
C          C       0.58659   0.78657   0.88060
C          C       0.08659   0.71343   0.61940
C          C       0.41341   0.21343   0.61940
C          C       0.91341   0.28657   0.88060
H          H       0.61700   0.77270   0.89660
H          H       0.11700   0.72730   0.60340
H          H       0.38300   0.22730   0.60340
H          H       0.88300   0.27270   0.89660
C          C       0.21777   0.33567   0.59150
C          C       0.71777   0.16433   0.90850
C          C       0.78223   0.66433   0.90850
C          C       0.28223   0.83567   0.59150
H          H       0.23730   0.31300   0.61785
H          H       0.73730   0.18700   0.88215
H          H       0.76270   0.68700   0.88215
H          H       0.26270   0.81300   0.61785
C          C       0.44651   0.60615   0.59565
C          C       0.94651   0.89385   0.90435
C          C       0.55349   0.39385   0.90435
C          C       0.05349   0.10615   0.59565
H          H       0.47480   0.58310   0.58975
H          H       0.97480   0.91690   0.91025
H          H       0.52520   0.41690   0.91025
H          H       0.02520   0.08310   0.58975
C          C       0.72365   0.70363   0.62610
C          C       0.22365   0.79637   0.87390
C          C       0.27635   0.29637   0.87390
C          C       0.77635   0.20363   0.62610
H          H       0.75420   0.69870   0.60065
H          H       0.25420   0.80130   0.89935
H          H       0.24580   0.30130   0.89935
H          H       0.74580   0.19870   0.60065
C          C       0.49556   0.79541   0.88850
C          C       0.99556   0.70459   0.61150
C          C       0.50444   0.20459   0.61150
C          C       0.00444   0.29541   0.88850
H          H       0.46490   0.78780   0.91035
H          H       0.96490   0.71220   0.58965
H          H       0.53510   0.21220   0.58965
H          H       0.03510   0.28780   0.91035
C          C       0.88958   0.45087   0.89975
C          C       0.38958   0.04913   0.60025
C          C       0.11042   0.54913   0.60025
C          C       0.61042   0.95087   0.89975
H          H       0.85460   0.44630   0.89480
H          H       0.35460   0.05370   0.60520
H          H       0.14540   0.55370   0.60520
H          H       0.64540   0.94630   0.89480
C          C       0.96777   0.49063   0.86230
C          C       0.46777   0.00937   0.63770
C          C       0.03223   0.50937   0.63770
C          C       0.53223   0.99063   0.86230
H          H       0.98470   0.51360   0.83335
H          H       0.48470   0.98640   0.66665
H          H       0.01530   0.48640   0.66665
H          H       0.51530   0.01360   0.83335
C          C       0.54164   0.83896   0.79820
C          C       0.04164   0.66104   0.70180
C          C       0.45836   0.16104   0.70180
C          C       0.95836   0.33896   0.79820
H          H       0.54190   0.86030   0.75945
H          H       0.04190   0.63970   0.74055
H          H       0.45810   0.13970   0.74055
H          H       0.95810   0.36030   0.75945
C          C       0.15312   0.59717   0.84340
C          C       0.65312   0.90283   0.65660
C          C       0.84688   0.40283   0.65660
C          C       0.34688   0.09717   0.84340
H          H       0.13120   0.61300   0.87965
H          H       0.63120   0.88700   0.62035
H          H       0.86880   0.38700   0.62035
H          H       0.36880   0.11300   0.87965
C          C       0.49617   0.82709   0.83075
C          C       0.99617   0.67291   0.66925
C          C       0.50383   0.17291   0.66925
C          C       0.00383   0.32709   0.83075
H          H       0.46580   0.84050   0.81380
H          H       0.96580   0.65950   0.68620
H          H       0.53420   0.15950   0.68620
H          H       0.03420   0.34050   0.81380
C          C       0.58672   0.81894   0.82345
C          C       0.08672   0.68106   0.67655
C          C       0.41328   0.18106   0.67655
C          C       0.91328   0.31894   0.82345
H          H       0.61730   0.82720   0.80195
H          H       0.11730   0.67280   0.69805
H          H       0.38270   0.17280   0.69805
H          H       0.88270   0.32720   0.80195
C          C       0.91522   0.48467   0.85675
C          C       0.41522   0.01533   0.64325
C          C       0.08478   0.51533   0.64325
C          C       0.58478   0.98467   0.85675
H          H       0.89730   0.50350   0.82390
H          H       0.39730   0.99650   0.67610
H          H       0.10270   0.49650   0.67610
H          H       0.60270   0.00350   0.82390
C          C       0.40055   0.58620   0.61925
C          C       0.90055   0.91380   0.88075
C          C       0.59945   0.41380   0.88075
C          C       0.09945   0.08620   0.61925
H          H       0.39850   0.54990   0.63050
H          H       0.89850   0.95010   0.86950
H          H       0.60150   0.45010   0.86950
H          H       0.10150   0.04990   0.63050
C          C       0.21709   0.55009   0.73345
C          C       0.71709   0.94991   0.76655
C          C       0.78291   0.44991   0.76655
C          C       0.28291   0.05009   0.73345
H          H       0.23830   0.53440   0.69620
H          H       0.73830   0.96560   0.80380
H          H       0.76170   0.46560   0.80380
H          H       0.26170   0.03440   0.69620
C          C       0.17913   0.63043   0.80005
C          C       0.67913   0.86957   0.69995
C          C       0.82087   0.36957   0.69995
C          C       0.32087   0.13043   0.80005
H          H       0.17540   0.66870   0.80820
H          H       0.67540   0.83130   0.69180
H          H       0.82460   0.33130   0.69180
H          H       0.32460   0.16870   0.80820
C          C       0.40698   0.69377   0.58605
C          C       0.90698   0.80623   0.91395
C          C       0.59302   0.30623   0.91395
C          C       0.09302   0.19377   0.58605
H          H       0.40860   0.72990   0.57430
H          H       0.90860   0.77010   0.92570
H          H       0.59140   0.27010   0.92570
H          H       0.09140   0.22990   0.57430
C          C       0.21047   0.60726   0.74490
C          C       0.71047   0.89274   0.75510
C          C       0.78953   0.39274   0.75510
C          C       0.28953   0.10726   0.74490
H          H       0.22730   0.62990   0.71530
H          H       0.72730   0.87010   0.78470
H          H       0.77270   0.37010   0.78470
H          H       0.27270   0.12990   0.71530
C          C       0.35832   0.61944   0.62610
C          C       0.85832   0.88056   0.87390
C          C       0.64168   0.38056   0.87390
C          C       0.14168   0.11944   0.62610
H          H       0.32780   0.60590   0.64240
H          H       0.82780   0.89410   0.85760
H          H       0.67220   0.39410   0.85760
H          H       0.17220   0.10590   0.64240
C          C       0.36100   0.67278   0.60880
C          C       0.86100   0.82722   0.89120
C          C       0.63900   0.32722   0.89120
C          C       0.13900   0.17278   0.60880
H          H       0.33210   0.69500   0.61230
H          H       0.83210   0.80500   0.88770
H          H       0.66790   0.30500   0.88770
H          H       0.16790   0.19500   0.61230
H          H       0.47170   0.52050   0.95600
H          H       0.97170   0.97950   0.54400
H          H       0.52830   0.47950   0.54400
H          H       0.02830   0.02050   0.95600
F          F       0.26341   0.67923   0.50630
F          F       0.76341   0.82077   0.99370
F          F       0.73659   0.32077   0.99370
F          F       0.23659   0.17923   0.50630
F          F       0.19598   0.73000   0.54660
F          F       0.69598   0.77000   0.95340
F          F       0.80402   0.27000   0.95340
F          F       0.30402   0.23000   0.54660
F          F       0.24705   0.70196   0.63250
F          F       0.74705   0.79804   0.86750
F          F       0.75295   0.29804   0.86750
F          F       0.25295   0.20196   0.63250
F          F       0.19372   0.64014   0.56885
F          F       0.69372   0.85986   0.93115
F          F       0.80628   0.35986   0.93115
F          F       0.30628   0.14014   0.56885
B          B       0.22570   0.68470   0.56680
B          B       0.72570   0.81530   0.93320
B          B       0.77430   0.31530   0.93320
B          B       0.27430   0.18470   0.56680
N          N       0.61320   0.28291   0.60495
N          N       0.11320   0.21709   0.89505
N          N       0.38680   0.71709   0.89505
N          N       0.88680   0.78291   0.60495
C          C       0.64960   0.30401   0.62410
C          C       0.14960   0.19599   0.87590
C          C       0.35040   0.69599   0.87590
C          C       0.85040   0.80401   0.62410
C          C       0.69569   0.33158   0.65095
C          C       0.19569   0.16842   0.84905
C          C       0.30431   0.66842   0.84905
C          C       0.80431   0.83158   0.65095
H          H       0.68820   0.35670   0.69390
H          H       0.18820   0.14330   0.80610
H          H       0.31180   0.64330   0.80610
H          H       0.81180   0.85670   0.69390
H          H       0.70960   0.35190   0.61395
H          H       0.20960   0.14810   0.88605
H          H       0.29040   0.64810   0.88605
H          H       0.79040   0.85190   0.61395
H          H       0.71990   0.30450   0.66290
H          H       0.21990   0.19550   0.83710
H          H       0.28010   0.69550   0.83710
H          H       0.78010   0.80450   0.66290
C          C       0.36110   0.84100   0.76265
C          C       0.86110   0.65900   0.73735
C          C       0.63890   0.15900   0.73735
C          C       0.13890   0.34100   0.76265
N          N       0.35060   0.87870   0.79885
N          N       0.85060   0.62130   0.70115
N          N       0.64940   0.12130   0.70115
N          N       0.14940   0.37870   0.79885
C          C       0.37705   0.79160   0.71525
C          C       0.87705   0.70840   0.78475
C          C       0.62295   0.20840   0.78475
C          C       0.12295   0.29160   0.71525
H          H       0.39650   0.76800   0.74310
H          H       0.89650   0.73200   0.75690
H          H       0.60350   0.23200   0.75690
H          H       0.10350   0.26800   0.74310
H          H       0.39760   0.80240   0.67620
H          H       0.89760   0.69760   0.82380
H          H       0.60240   0.19760   0.82380
H          H       0.10240   0.30240   0.67620
H          H       0.34760   0.77200   0.69520
H          H       0.84760   0.72800   0.80480
H          H       0.65240   0.22800   0.80480
H          H       0.15240   0.27200   0.69520
H          H       0.17953   0.66713   0.54990
H          H       0.67953   0.83287   0.95010
H          H       0.82047   0.33287   0.95010
H          H       0.32047   0.16713   0.54990
H          H       0.50774   0.89695   0.71160
H          H       0.00774   0.60305   0.78840
H          H       0.49226   0.10305   0.78840
H          H       0.99226   0.39695   0.71160
H          H       0.22950   0.63508   0.63395
H          H       0.72950   0.86492   0.86605
H          H       0.77050   0.36492   0.86605
H          H       0.27050   0.13508   0.63395
H          H       0.39840   0.86900   0.75869
H          H       0.89840   0.63100   0.74131
H          H       0.60160   0.13100   0.74131
H          H       0.10160   0.36900   0.75869
H          H       0.43222   0.84771   0.67651
H          H       0.93222   0.65229   0.82349
H          H       0.56778   0.15229   0.82349
H          H       0.06778   0.34771   0.67651
H          H       0.36458   0.84771   0.67651
H          H       0.86458   0.65229   0.82349
H          H       0.63542   0.15229   0.82349
H          H       0.13542   0.34771   0.67651
H          H       0.39840   0.91158   0.68649
H          H       0.89840   0.58842   0.81351
H          H       0.60160   0.08842   0.81351
H          H       0.10160   0.41158   0.68649
H          H       0.22100   0.68020   0.60836
H          H       0.72100   0.81980   0.89164
H          H       0.77900   0.31980   0.89164
H          H       0.27900   0.18020   0.60836
H          H       0.21463   0.72705   0.63920
H          H       0.71463   0.77295   0.86080
H          H       0.78537   0.27295   0.86080
H          H       0.28537   0.22705   0.63920
H          H       0.50510   0.85100   0.67381
H          H       0.00510   0.64900   0.82619
H          H       0.49490   0.14900   0.82619
H          H       0.99490   0.35100   0.67381
H          H       0.54190   0.82783   0.58437
H          H       0.04190   0.67217   0.91563
H          H       0.45810   0.17217   0.91563
H          H       0.95810   0.32783   0.58437
H          H       0.34050   0.85070   0.86193
H          H       0.84050   0.64930   0.63807
H          H       0.65950   0.14930   0.63807
H          H       0.15950   0.35070   0.86193
H          H       0.30898   0.83086   0.78532
H          H       0.80898   0.66914   0.71468
H          H       0.69102   0.16914   0.71468
H          H       0.19102   0.33086   0.78532
H          H       0.36730   0.85980   0.82014
H          H       0.86730   0.64020   0.67986
H          H       0.63270   0.14020   0.67986
H          H       0.13270   0.35980   0.82014
H          H       0.40112   0.83851   0.73796
H          H       0.90112   0.66149   0.76204
H          H       0.59888   0.16149   0.76204
H          H       0.09888   0.33851   0.73796
H          H       0.33348   0.83851   0.73796
H          H       0.83348   0.66149   0.76204
H          H       0.66652   0.16149   0.76204
H          H       0.16652   0.33851   0.73796
H          H       0.36730   0.90238   0.74794
H          H       0.86730   0.59762   0.75206
H          H       0.63270   0.09762   0.75206
H          H       0.13270   0.40238   0.74794
F          F       0.17953   0.66713   0.50010
F          F       0.67953   0.83287   0.99990
F          F       0.82047   0.33287   0.99990
F          F       0.32047   0.16713   0.50010
F          F       0.55124   0.85084   0.56880
F          F       0.05124   0.64916   0.93120
F          F       0.44876   0.14916   0.93120
F          F       0.94876   0.35084   0.56880
F          F       0.50774   0.89695   0.66180
F          F       0.00774   0.60305   0.83820
F          F       0.49226   0.10305   0.83820
F          F       0.99226   0.39695   0.66180
F          F       0.22950   0.63508   0.58415
F          F       0.72950   0.86492   0.91585
F          F       0.77050   0.36492   0.91585
F          F       0.27050   0.13508   0.58415
F          F       0.21463   0.72705   0.58940
F          F       0.71463   0.77295   0.91060
F          F       0.78537   0.27295   0.91060
F          F       0.28537   0.22705   0.58940
C          C       0.39840   0.86900   0.69955
C          C       0.89840   0.63100   0.80045
C          C       0.60160   0.13100   0.80045
C          C       0.10160   0.36900   0.69955
H          H       0.42450   0.89540   0.71520
H          H       0.92450   0.60460   0.78480
H          H       0.57550   0.10460   0.78480
H          H       0.07550   0.39540   0.71520
H          H       0.37780   0.88310   0.66290
H          H       0.87780   0.61690   0.83710
H          H       0.62220   0.11690   0.83710
H          H       0.12220   0.38310   0.66290
N          N       0.34050   0.85070   0.80680
N          N       0.84050   0.64930   0.69320
N          N       0.65950   0.14930   0.69320
N          N       0.15950   0.35070   0.80680
