data_TAPB-PDA_COF
_audit_creation_date              0000-00-00
_audit_creation_method            'LanYouShi'
_symmetry_space_group_name_H-M    'P1'
_cell_length_a                    39.4509010
_cell_length_b                    39.4508018
_cell_length_c                    3.4000001
_cell_angle_alpha                 90.0000000
_cell_angle_beta                  90.0000000
_cell_angle_gamma                 120.0000992
loop_
_atom_site_label
_atom_site_type_symbol
_atom_site_fract_x
_atom_site_fract_y
_atom_site_fract_z
_atom_site_U_iso_or_equiv
_atom_site_adp_type
_atom_site_occupancy
        C1          C  0.3824829  0.4475724  1.4771155    0.00000       Uiso       1.00
        N1          N  0.4140028  0.4365272  1.4777104    0.00000       Uiso       1.00
        C2          C  0.4565627  0.4680200  1.4747360    0.00000       Uiso       1.00
        C3          C  0.4885308  0.4565068  1.4692951    0.00000       Uiso       1.00
        C4          C  0.5320016  0.4885167  1.4641324    0.00000       Uiso       1.00
        H1          H  0.3908475  0.4797218  1.4758326    0.00000       Uiso       1.00
        H2          H  0.4800267  0.4244047  1.4687960    0.00000       Uiso       1.00
        H3          H  0.5557274  0.4800166  1.4594501    0.00000       Uiso       1.00
        C5          C  0.6175399  0.5524391  1.4645288    0.00000       Uiso       1.00
        N2          N  0.5860006  0.5634655  1.4647743    0.00000       Uiso       1.00
        C6          C  0.5434335  0.5319786  1.4661542    0.00000       Uiso       1.00
        C7          C  0.5114622  0.5434976  1.4712985    0.00000       Uiso       1.00
        C8          C  0.4679900  0.5114825  1.4761258    0.00000       Uiso       1.00
        H4          H  0.6092033  0.5202963  1.4639205    0.00000       Uiso       1.00
        H5          H  0.5199617  0.5755934  1.4722503    0.00000       Uiso       1.00
        H6          H  0.4442623  0.5199792  1.4808218    0.00000       Uiso       1.00
        C9          C  0.0524842  0.4349979  1.4761555    0.00000       Uiso       1.00
        N3          N  0.0635292  0.4775628  1.4778016    0.00000       Uiso       1.00
       C10          C  0.0320375  0.4886310  1.4745147    0.00000       Uiso       1.00
       C11          C  0.0435520  0.5321138  1.4701517    0.00000       Uiso       1.00
       C12          C  0.0115438  0.5435764  1.4646754    0.00000       Uiso       1.00
        H7          H  0.0203354  0.4112136  1.4738419    0.00000       Uiso       1.00
        H8          H  0.0756541  0.5557117  1.4706787    0.00000       Uiso       1.00
        H9          H  0.0200451  0.5758035  1.4607916    0.00000       Uiso       1.00
       C13          C  0.9476230  0.5651926  1.4644197    0.00000       Uiso       1.00
        N4          N  0.9365965  0.5226268  1.4636142    0.00000       Uiso       1.00
       C14          C  0.9680828  0.5115461  1.4653064    0.00000       Uiso       1.00
       C15          C  0.9565624  0.4680541  1.4693723    0.00000       Uiso       1.00
       C16          C  0.9885761  0.4565956  1.4745134    0.00000       Uiso       1.00
       H10          H  0.9797657  0.5889987  1.4648423    0.00000       Uiso       1.00
       H11          H  0.9244666  0.4444578  1.4692984    0.00000       Uiso       1.00
       H12          H  0.9800780  0.4243698  1.4784111    0.00000       Uiso       1.00
       C17          C  0.0650589  0.1175749  1.4892493    0.00000       Uiso       1.00
        N5          N  0.0224938  0.0860548  1.4895304    0.00000       Uiso       1.00
       C18          C  0.0114265  0.0434958  1.4851916    0.00000       Uiso       1.00
       C19          C  0.9679464  0.0115290  1.4794389    0.00000       Uiso       1.00
       C20          C  0.9564860  0.9680610  1.4728857    0.00000       Uiso       1.00
       H13          H  0.0888436  0.1092109  1.4871719    0.00000       Uiso       1.00
       H14          H  0.9443484  0.0200331  1.4797357    0.00000       Uiso       1.00
       H15          H  0.9242601  0.9443363  1.4679711    0.00000       Uiso       1.00
       C21          C  0.9348698  0.8825226  1.4705269    0.00000       Uiso       1.00
        N6          N  0.9774356  0.9140621  1.4710869    0.00000       Uiso       1.00
       C22          C  0.9885159  0.9566286  1.4738313    0.00000       Uiso       1.00
       C23          C  0.0320053  0.9885988  1.4792871    0.00000       Uiso       1.00
       C24          C  0.0434617  0.0320684  1.4855052    0.00000       Uiso       1.00
       H16          H  0.9110637  0.8908593  1.4707125    0.00000       Uiso       1.00
       H17          H  0.0556015  0.9800991  1.4794434    0.00000       Uiso       1.00
       H18          H  0.0756863  0.0557949  1.4904337    0.00000       Uiso       1.00
       C25          C  0.6834392  0.6197135  1.4657500    0.00000       Uiso       1.00
       C26          C  0.7240665  0.6415880  1.4661264    0.00000       Uiso       1.00
       H19          H  0.6668130  0.6347619  1.4660567    0.00000       Uiso       1.00
       H20          H  0.7381765  0.6731982  1.4667182    0.00000       Uiso       1.00
       C27          C  0.8803487  0.5638175  1.4644655    0.00000       Uiso       1.00
       C28          C  0.8584743  0.5825703  1.4648490    0.00000       Uiso       1.00
       H21          H  0.8653002  0.5321428  1.4638734    0.00000       Uiso       1.00
       H22          H  0.8268641  0.5650701  1.4645468    0.00000       Uiso       1.00
       C29          C  0.9362449  0.8166234  1.4692601    0.00000       Uiso       1.00
       C30          C  0.9174920  0.7759960  1.4684999    0.00000       Uiso       1.00
       H23          H  0.9679196  0.8332497  1.4695454    0.00000       Uiso       1.00
       H24          H  0.9349923  0.7618861  1.4682103    0.00000       Uiso       1.00
       C31          C  0.8702911  0.8140751  1.4692818    0.00000       Uiso       1.00
       C32          C  0.8508042  0.7734194  1.4685221    0.00000       Uiso       1.00
       H25          H  0.8533769  0.8288240  1.4695832    0.00000       Uiso       1.00
       H26          H  0.8191341  0.7574096  1.4682486    0.00000       Uiso       1.00
       C33          C  0.9437543  0.6297714  1.4656639    0.00000       Uiso       1.00
       C34          C  0.9225855  0.6492583  1.4660608    0.00000       Uiso       1.00
       H27          H  0.9754174  0.6466856  1.4659548    0.00000       Uiso       1.00
       H28          H  0.9382458  0.6809283  1.4666522    0.00000       Uiso       1.00
       C35          C  0.6859874  0.5563079  1.4645298    0.00000       Uiso       1.00
       C36          C  0.7266431  0.5774767  1.4648925    0.00000       Uiso       1.00
       H29          H  0.6712384  0.5246447  1.4639374    0.00000       Uiso       1.00
       H30          H  0.7426528  0.5618164  1.4645747    0.00000       Uiso       1.00
       C37          C  0.8527142  0.7078914  1.4672617    0.00000       Uiso       1.00
       C38          C  0.9134226  0.8369341  1.4696745    0.00000       Uiso       1.00
       C39          C  0.8734652  0.7519999  1.4680865    0.00000       Uiso       1.00
       C40          C  0.7921711  0.6449149  1.4661173    0.00000       Uiso       1.00
       C41          C  0.6631284  0.5765804  1.4649434    0.00000       Uiso       1.00
       C42          C  0.7480626  0.6215572  1.4657160    0.00000       Uiso       1.00
       C43          C  0.8551474  0.6473481  1.4660965    0.00000       Uiso       1.00
       C44          C  0.9234817  0.5866398  1.4648575    0.00000       Uiso       1.00
       C45          C  0.8785049  0.6265972  1.4656730    0.00000       Uiso       1.00
       C46          C  0.8740644  0.6882815  1.4668623    0.00000       Uiso       1.00
       C47          C  0.8117810  0.6858750  1.4668827    0.00000       Uiso       1.00
       C48          C  0.8141874  0.6259979  1.4657304    0.00000       Uiso       1.00
       H31          H  0.7947636  0.7004968  1.4671818    0.00000       Uiso       1.00
       H32          H  0.7995656  0.5943587  1.4651386    0.00000       Uiso       1.00
       H33          H  0.9057036  0.7052990  1.4671551    0.00000       Uiso       1.00
       C49          C  0.3165649  0.3803163  1.4795830    0.00000       Uiso       1.00
       C50          C  0.2759367  0.3584583  1.4802991    0.00000       Uiso       1.00
       H34          H  0.3331782  0.3652546  1.4802760    0.00000       Uiso       1.00
       H35          H  0.2618133  0.3268473  1.4815342    0.00000       Uiso       1.00
       C51          C  0.1197406  0.4363362  1.4764016    0.00000       Uiso       1.00
       C52          C  0.1415987  0.4175662  1.4772702    0.00000       Uiso       1.00
       H36          H  0.1348024  0.4680112  1.4751680    0.00000       Uiso       1.00
       H37          H  0.1732098  0.4350537  1.4766934    0.00000       Uiso       1.00
       C53          C  0.0637206  0.1834928  1.4865359    0.00000       Uiso       1.00
       C54          C  0.0824906  0.2241208  1.4849513    0.00000       Uiso       1.00
       H38          H  0.0320455  0.1668795  1.4870765    0.00000       Uiso       1.00
       H39          H  0.0650030  0.2382442  1.4842929    0.00000       Uiso       1.00
       C55          C  0.1296575  0.1860053  1.4867277    0.00000       Uiso       1.00
       C56          C  0.1491614  0.2266612  1.4851452    0.00000       Uiso       1.00
       H40          H  0.1465588  0.1712430  1.4874097    0.00000       Uiso       1.00
       H41          H  0.1808315  0.2426579  1.4846298    0.00000       Uiso       1.00
       C57          C  0.0563162  0.3703995  1.4788259    0.00000       Uiso       1.00
       C58          C  0.0774684  0.3508957  1.4797218    0.00000       Uiso       1.00
       H42          H  0.0246525  0.3534983  1.4793785    0.00000       Uiso       1.00
       H43          H  0.0617950  0.3192257  1.4809524    0.00000       Uiso       1.00
       C59          C  0.3140523  0.4437404  1.4769669    0.00000       Uiso       1.00
       C60          C  0.2733962  0.4225883  1.4776536    0.00000       Uiso       1.00
       H44          H  0.3288147  0.4754040  1.4757323    0.00000       Uiso       1.00
       H45          H  0.2573996  0.4382617  1.4769384    0.00000       Uiso       1.00
       C61          C  0.1472880  0.2922080  1.4824446    0.00000       Uiso       1.00
       C62          C  0.0865253  0.1631640  1.4874730    0.00000       Uiso       1.00
       C63          C  0.1265185  0.2480991  1.4841633    0.00000       Uiso       1.00
       C64          C  0.2078492  0.3551682  1.4801296    0.00000       Uiso       1.00
       C65          C  0.3368938  0.4234497  1.4779024    0.00000       Uiso       1.00
       C66          C  0.2519583  0.3785077  1.4793683    0.00000       Uiso       1.00
       C67          C  0.1448888  0.3527690  1.4799464    0.00000       Uiso       1.00
       C68          C  0.0766070  0.4135315  1.4771451    0.00000       Uiso       1.00
       C69          C  0.1215492  0.3735385  1.4789889    0.00000       Uiso       1.00
       C70          C  0.1259546  0.3118351  1.4815429    0.00000       Uiso       1.00
       C71          C  0.1882221  0.3142078  1.4817241    0.00000       Uiso       1.00
       C72          C  0.1858494  0.3741024  1.4792534    0.00000       Uiso       1.00
       H46          H  0.2052268  0.2995726  1.4824013    0.00000       Uiso       1.00
       H47          H  0.2004845  0.4057421  1.4780195    0.00000       Uiso       1.00
       H48          H  0.0943147  0.2948305  1.4820999    0.00000       Uiso       1.00
