data_TAPB-TFP
_audit_creation_date              0000-00-00
_audit_creation_method            'LanYouShi'
_symmetry_space_group_name_H-M    'P1'
_cell_length_a                    17.9400997
_cell_length_b                    3.5300000
_cell_length_c                    19.0282001
_cell_angle_alpha                 90.0000000
_cell_angle_beta                  114.7657013
_cell_angle_gamma                 90.0000000
loop_
_atom_site_label
_atom_site_type_symbol
_atom_site_fract_x
_atom_site_fract_y
_atom_site_fract_z
_atom_site_U_iso_or_equiv
_atom_site_adp_type
_atom_site_occupancy
        C1          C  0.5307006  0.5000023  0.6066028    0.00000       Uiso       1.00
        C2          C  0.5475757  0.5000023  0.4828961    0.00000       Uiso       1.00
        C3          C  0.4073992  0.5000023  0.4795602    0.00000       Uiso       1.00
        C4          C  0.4442655  0.5000023  0.5620345    0.00000       Uiso       1.00
        C5          C  0.5809184  0.5000023  0.5654528    0.00000       Uiso       1.00
        C6          C  0.4604693  0.5000023  0.4411725    0.00000       Uiso       1.00
        C1          C  0.7934982  0.5000023  0.0717776    0.00000       Uiso       1.00
        C2          C  0.7815146  0.5000023  0.1997089    0.00000       Uiso       1.00
        C3          C  0.9217672  0.5000023  0.1972481    0.00000       Uiso       1.00
        C4          C  0.8802829  0.5000023  0.1151591    0.00000       Uiso       1.00
        C5          C  0.7479701  0.5000023  0.1176893    0.00000       Uiso       1.00
        C6          C  0.8685472  0.5000023  0.2353912    0.00000       Uiso       1.00
        O1          O  0.3986200  0.5000023  0.5973516    0.00000       Uiso       1.00
        O2          O  0.6574849  0.5000023  0.6033718    0.00000       Uiso       1.00
        O3          O  0.4291281  0.5000023  0.3686046    0.00000       Uiso       1.00
        H1          H  0.9153875  0.5000023  0.0855942    0.00000       Uiso       1.00
        H2          H  0.6866579  0.5000023  0.0901755    0.00000       Uiso       1.00
        H3          H  0.8946986  0.5000023  0.2930222    0.00000       Uiso       1.00
        C1          C  0.7544146  0.5000023  0.9880731    0.00000       Uiso       1.00
        C2          C  0.7319834  0.5000023  0.2433325    0.00000       Uiso       1.00
        C3          C  0.0102559  0.5000023  0.2391131    0.00000       Uiso       1.00
        C4          C  0.6673743  0.5000023  0.9449441    0.00000       Uiso       1.00
        C5          C  0.7666703  0.5000023  0.3259554    0.00000       Uiso       1.00
        C6          C  0.0656344  0.5000023  0.2027377    0.00000       Uiso       1.00
        C7          C  0.3200692  0.5000023  0.4405638    0.00000       Uiso       1.00
        C8          C  0.6027346  0.5000023  0.4465627    0.00000       Uiso       1.00
        C9          C  0.5620776  0.5000023  0.6889735    0.00000       Uiso       1.00
       C10          C  0.0503920  0.5000023  0.3216094    0.00000       Uiso       1.00
       C11          C  0.6442604  0.5000023  0.2082597    0.00000       Uiso       1.00
       C12          C  0.7988029  0.5000023  0.9408546    0.00000       Uiso       1.00
       C13          C  0.7602822  0.5000023  0.8592417    0.00000       Uiso       1.00
       C14          C  0.5964088  0.5000023  0.2511591    0.00000       Uiso       1.00
       C15          C  0.1359520  0.5000023  0.3634819    0.00000       Uiso       1.00
        N1          N  0.2729092  0.5000023  0.3629108    0.00000       Uiso       1.00
        N2          N  0.5821563  0.5000023  0.3692575    0.00000       Uiso       1.00
        N3          N  0.6423408  0.5000023  0.7401169    0.00000       Uiso       1.00
       C16          C  0.1519617  0.5000023  0.2446254    0.00000       Uiso       1.00
       C17          C  0.7194558  0.5000023  0.3691129    0.00000       Uiso       1.00
       C18          C  0.6285164  0.5000023  0.8636550    0.00000       Uiso       1.00
        H1          H  0.6279817  0.5000023  0.9706313    0.00000       Uiso       1.00
        H2          H  0.8280766  0.5000023  0.3588698    0.00000       Uiso       1.00
        H3          H  0.0452467  0.5000023  0.1442700    0.00000       Uiso       1.00
        H4          H  0.6636669  0.5000023  0.4818777    0.00000       Uiso       1.00
        H5          H  0.5202434  0.5000023  0.7120247    0.00000       Uiso       1.00
        H6          H  0.0196067  0.5000023  0.3556924    0.00000       Uiso       1.00
        H7          H  0.6114318  0.5000023  0.1499698    0.00000       Uiso       1.00
        H8          H  0.8610877  0.5000023  0.9639332    0.00000       Uiso       1.00
       C19          C  0.6743276  0.5000023  0.8189176    0.00000       Uiso       1.00
       C20          C  0.6330022  0.5000023  0.3324870    0.00000       Uiso       1.00
       C21          C  0.1891510  0.5000023  0.3260630    0.00000       Uiso       1.00
        H9          H  0.7955598  0.5000023  0.8286600    0.00000       Uiso       1.00
       H10          H  0.5337080  0.5000023  0.2226324    0.00000       Uiso       1.00
       H11          H  0.1584502  0.5000023  0.4222569    0.00000       Uiso       1.00
       H12          H  0.1885546  0.5000023  0.2153844    0.00000       Uiso       1.00
       H13          H  0.7496428  0.5000023  0.4278949    0.00000       Uiso       1.00
       H14          H  0.5660138  0.5000023  0.8378971    0.00000       Uiso       1.00
       H15          H  0.2893001  0.5000023  0.4747966    0.00000       Uiso       1.00
       H16          H  0.3020806  0.5000023  0.3302620    0.00000       Uiso       1.00
       H17          H  0.5241609  0.5000023  0.3362621    0.00000       Uiso       1.00
       H18          H  0.6816804  0.5000023  0.7178091    0.00000       Uiso       1.00
