data_crystal
 
_cell_length_a    37.80000
_cell_length_b    37.80000
_cell_length_c    17.00000
_cell_angle_alpha 90.00000
_cell_angle_beta  90.00000
_cell_angle_gamma 120.00000
 
_symmetry_space_group_name_Hall 'P 1'
_symmetry_space_group_name_H-M  'P 1'
 
loop_
_symmetry_equiv_pos_as_xyz
 'x,y,z' 
 
loop_
_atom_site_label
_atom_site_type_symbol
_atom_site_fract_x
_atom_site_fract_y
_atom_site_fract_z
C          C       0.54880   0.46001   0.48738 
C          C       0.53999   0.08879   0.48738 
C          C       0.91121   0.45120   0.48738 
C          C       0.21547   0.79334   0.15404 
C          C       0.20666   0.42212   0.15404 
C          C       0.57788   0.78453   0.15404 
C          C       0.88213   0.12668   0.32071 
C          C       0.87332   0.75546   0.32071 
C          C       0.24454   0.11787   0.32071 
C          C       0.45120   0.53999   0.01263 
C          C       0.46001   0.91121   0.01263 
C          C       0.08879   0.54880   0.01263 
C          C       0.11787   0.87332   0.17929 
C          C       0.12668   0.24454   0.17929 
C          C       0.75546   0.88213   0.17929 
C          C       0.78453   0.20666   0.34596 
C          C       0.79334   0.57788   0.34596 
C          C       0.42212   0.21547   0.34596 
N          N       0.54852   0.43481   0.03959 
N          N       0.56519   0.11371   0.03959 
N          N       0.88629   0.45148   0.03959 
N          N       0.21519   0.76814   0.20625 
N          N       0.23186   0.44704   0.20625 
N          N       0.55296   0.78481   0.20625 
N          N       0.88185   0.10148   0.37292 
N          N       0.89852   0.78038   0.37292 
N          N       0.21962   0.11815   0.37292 
N          N       0.45148   0.56519   0.46042 
N          N       0.43481   0.88629   0.46042 
N          N       0.11371   0.54852   0.46042 
N          N       0.11815   0.89852   0.12708 
N          N       0.10148   0.21962   0.12708 
N          N       0.78038   0.88185   0.12708 
N          N       0.78481   0.23186   0.29375 
N          N       0.76814   0.55296   0.29375 
N          N       0.44704   0.21519   0.29375 
C          C       0.57264   0.41493   0.03483 
C          C       0.58507   0.15771   0.03483 
C          C       0.84229   0.42736   0.03483 
C          C       0.23931   0.74826   0.20150 
C          C       0.25174   0.49104   0.20150 
C          C       0.50896   0.76069   0.20150 
C          C       0.90597   0.08160   0.36816 
C          C       0.91840   0.82438   0.36816 
C          C       0.17562   0.09403   0.36816 
C          C       0.42736   0.58507   0.46517 
C          C       0.41493   0.84229   0.46517 
C          C       0.15771   0.57264   0.46517 
C          C       0.09403   0.91840   0.13184 
C          C       0.08160   0.17562   0.13184 
C          C       0.82438   0.90597   0.13184 
C          C       0.76069   0.25174   0.29850 
C          C       0.74826   0.50896   0.29850 
C          C       0.49104   0.23931   0.29850 
C          C       0.56063   0.38088   0.48464 
C          C       0.61912   0.17975   0.48464 
C          C       0.82025   0.43937   0.48464 
C          C       0.22730   0.71421   0.15131 
C          C       0.28579   0.51308   0.15131 
C          C       0.48692   0.77270   0.15131 
C          C       0.89396   0.04755   0.31797 
C          C       0.95245   0.84642   0.31797 
C          C       0.15358   0.10604   0.31797 
C          C       0.43937   0.61912   0.01536 
C          C       0.38088   0.82025   0.01536 
C          C       0.17975   0.56063   0.01536 
C          C       0.10604   0.95245   0.18203 
C          C       0.04755   0.15358   0.18203 
C          C       0.84642   0.89396   0.18203 
C          C       0.77270   0.28579   0.34869 
C          C       0.71421   0.48692   0.34869 
C          C       0.51308   0.22730   0.34869 
C          C       0.58515   0.36238   0.48030 
C          C       0.63762   0.22277   0.48030 
C          C       0.77723   0.41485   0.48030 
C          C       0.25182   0.69571   0.14697 
C          C       0.30429   0.55610   0.14697 
C          C       0.44390   0.74818   0.14697 
C          C       0.91848   0.02905   0.31364 
C          C       0.97095   0.88944   0.31364 
C          C       0.11056   0.08152   0.31364 
C          C       0.41485   0.63762   0.01970 
C          C       0.36238   0.77723   0.01970 
C          C       0.22277   0.58515   0.01970 
C          C       0.08152   0.97095   0.18636 
C          C       0.02905   0.11056   0.18636 
C          C       0.88944   0.91848   0.18636 
C          C       0.74818   0.30429   0.35303 
C          C       0.69571   0.44390   0.35303 
C          C       0.55610   0.25182   0.35303 
C          C       0.61945   0.37503   0.02873 
C          C       0.62497   0.24442   0.02873 
C          C       0.75558   0.38055   0.02873 
C          C       0.28612   0.70836   0.19539 
C          C       0.29164   0.57775   0.19539 
C          C       0.42225   0.71388   0.19539 
C          C       0.95278   0.04170   0.36206 
C          C       0.95830   0.91109   0.36206 
C          C       0.08891   0.04722   0.36206 
C          C       0.38055   0.62497   0.47127 
C          C       0.37503   0.75558   0.47127 
C          C       0.24442   0.61945   0.47127 
C          C       0.04722   0.95830   0.13794 
C          C       0.04170   0.08891   0.13794 
C          C       0.91109   0.95278   0.13794 
C          C       0.71388   0.29164   0.30461 
C          C       0.70836   0.42225   0.30461 
C          C       0.57775   0.28612   0.30461 
C          C       0.63010   0.40780   0.08039 
C          C       0.59220   0.22230   0.08039 
C          C       0.77770   0.36990   0.08039 
C          C       0.29677   0.74113   0.24706 
C          C       0.25887   0.55563   0.24706 
C          C       0.44437   0.70323   0.24706 
C          C       0.96343   0.07447   0.41373 
C          C       0.92553   0.88897   0.41373 
C          C       0.11103   0.03657   0.41373 
C          C       0.36990   0.59220   0.41961 
C          C       0.40780   0.77770   0.41961 
C          C       0.22230   0.63010   0.41961 
C          C       0.03657   0.92553   0.08627 
C          C       0.07447   0.11103   0.08627 
C          C       0.88897   0.96343   0.08627 
C          C       0.70323   0.25887   0.25294 
C          C       0.74113   0.44437   0.25294 
C          C       0.55563   0.29677   0.25294 
C          C       0.60739   0.42837   0.08385 
C          C       0.57163   0.17902   0.08385 
C          C       0.82098   0.39261   0.08385 
C          C       0.27406   0.76170   0.25052 
C          C       0.23830   0.51235   0.25052 
C          C       0.48765   0.72594   0.25052 
C          C       0.94072   0.09504   0.41718 
C          C       0.90496   0.84569   0.41718 
C          C       0.15431   0.05928   0.41718 
C          C       0.39261   0.57163   0.41615 
C          C       0.42837   0.82098   0.41615 
C          C       0.17902   0.60739   0.41615 
C          C       0.05928   0.90496   0.08282 
C          C       0.09504   0.15431   0.08282 
C          C       0.84569   0.94072   0.08282 
C          C       0.72594   0.23830   0.24948 
C          C       0.76170   0.48765   0.24948 
C          C       0.51235   0.27406   0.24948 
C          C       0.64359   0.35333   0.02686 
C          C       0.64667   0.29026   0.02686 
C          C       0.70974   0.35641   0.02686 
C          C       0.31026   0.68666   0.19353 
C          C       0.31334   0.62359   0.19353 
C          C       0.37641   0.68974   0.19353 
C          C       0.97692   0.02000   0.36019 
C          C       0.98000   0.95693   0.36019 
C          C       0.04307   0.02308   0.36019 
C          C       0.35641   0.64667   0.47314 
C          C       0.35333   0.70974   0.47314 
C          C       0.29026   0.64359   0.47314 
C          C       0.02308   0.98000   0.13981 
C          C       0.02000   0.04307   0.13981 
C          C       0.95693   0.97692   0.13981 
C          C       0.68974   0.31334   0.30647 
C          C       0.68666   0.37641   0.30647 
C          C       0.62359   0.31026   0.30647 
C          C       0.68671   0.37556   0.02680 
C          C       0.62444   0.31115   0.02680 
C          C       0.68885   0.31329   0.02680 
C          C       0.35338   0.70889   0.19347 
C          C       0.29111   0.64448   0.19347 
C          C       0.35552   0.64662   0.19347 
C          C       0.02004   0.04223   0.36013 
C          C       0.95777   0.97782   0.36013 
C          C       0.02218   0.97996   0.36013 
C          C       0.31329   0.62444   0.47320 
C          C       0.37556   0.68885   0.47320 
C          C       0.31115   0.68671   0.47320 
C          C       0.97996   0.95777   0.13987 
C          C       0.04223   0.02218   0.13987 
C          C       0.97782   0.02004   0.13987 
C          C       0.64662   0.29111   0.30653 
C          C       0.70889   0.35552   0.30653 
C          C       0.64448   0.35338   0.30653 
C          C       0.52331   0.47984   0.49538 
C          C       0.52016   0.04347   0.49538 
C          C       0.95653   0.47669   0.49538 
C          C       0.18998   0.81317   0.16205 
C          C       0.18683   0.37680   0.16205 
C          C       0.62320   0.81002   0.16205 
C          C       0.85664   0.14651   0.32871 
C          C       0.85349   0.71014   0.32871 
C          C       0.28986   0.14336   0.32871 
C          C       0.47669   0.52016   0.00462 
C          C       0.47984   0.95653   0.00462 
C          C       0.04347   0.52331   0.00462 
C          C       0.14336   0.85349   0.17129 
C          C       0.14651   0.28986   0.17129 
C          C       0.71014   0.85664   0.17129 
C          C       0.81002   0.18683   0.33795 
C          C       0.81317   0.62320   0.33795 
C          C       0.37680   0.18998   0.33795 
C          C       0.52653   0.50771   0.43746 
C          C       0.49229   0.01882   0.43746 
C          C       0.98118   0.47347   0.43746 
C          C       0.19320   0.84104   0.10413 
C          C       0.15896   0.35215   0.10413 
C          C       0.64785   0.80680   0.10413 
C          C       0.85986   0.17438   0.27080 
C          C       0.82562   0.68549   0.27080 
C          C       0.31451   0.14014   0.27080 
C          C       0.47347   0.49229   0.06253 
C          C       0.50771   0.98118   0.06253 
C          C       0.01882   0.52653   0.06253 
C          C       0.14014   0.82562   0.22920 
C          C       0.17438   0.31451   0.22920 
C          C       0.68549   0.85986   0.22920 
C          C       0.80680   0.15896   0.39587 
C          C       0.84104   0.64785   0.39587 
C          C       0.35215   0.19320   0.39587 
C          C       0.50287   0.52739   0.44162 
C          C       0.47261   0.97548   0.44162 
C          C       0.02452   0.49713   0.44162 
C          C       0.16954   0.86072   0.10829 
C          C       0.13928   0.30881   0.10829 
C          C       0.69119   0.83046   0.10829 
C          C       0.83620   0.19406   0.27495 
C          C       0.80594   0.64215   0.27495 
C          C       0.35785   0.16380   0.27495 
C          C       0.49713   0.47261   0.05838 
C          C       0.52739   0.02452   0.05838 
C          C       0.97548   0.50287   0.05838 
C          C       0.16380   0.80594   0.22505 
C          C       0.19406   0.35785   0.22505 
C          C       0.64215   0.83620   0.22505 
C          C       0.83046   0.13928   0.39171 
C          C       0.86072   0.69119   0.39171 
C          C       0.30881   0.16954   0.39171 
C          C       0.47763   0.63486   0.06364 
C          C       0.36514   0.84277   0.06364 
C          C       0.15723   0.52237   0.06364 
C          C       0.14430   0.96819   0.23031 
C          C       0.03181   0.17610   0.23031 
C          C       0.82390   0.85570   0.23031 
C          C       0.81096   0.30153   0.39697 
C          C       0.69847   0.50944   0.39697 
C          C       0.49056   0.18904   0.39697 
C          C       0.52237   0.36514   0.43636 
C          C       0.63486   0.15723   0.43636 
C          C       0.84277   0.47763   0.43636 
C          C       0.18904   0.69847   0.10303 
C          C       0.30153   0.49056   0.10303 
C          C       0.50944   0.81096   0.10303 
C          C       0.85570   0.03181   0.26969 
C          C       0.96819   0.82390   0.26969 
C          C       0.17610   0.14430   0.26969 
C          C       0.50316   0.68159   0.06359 
C          C       0.31841   0.82157   0.06359 
C          C       0.17843   0.49684   0.06359 
C          C       0.16983   0.01492   0.23026 
C          C       0.98508   0.15490   0.23026 
C          C       0.84510   0.83017   0.23026 
C          C       0.83649   0.34826   0.39692 
C          C       0.65174   0.48824   0.39692 
C          C       0.51176   0.16351   0.39692 
C          C       0.49684   0.31841   0.43641 
C          C       0.68159   0.17843   0.43641 
C          C       0.82157   0.50316   0.43641 
C          C       0.16351   0.65174   0.10308 
C          C       0.34826   0.51176   0.10308 
C          C       0.48824   0.83649   0.10308 
C          C       0.83017   0.98508   0.26974 
C          C       0.01492   0.84510   0.26974 
C          C       0.15490   0.16983   0.26974 
C          C       0.46757   0.62002   0.14784 
C          C       0.37998   0.84755   0.14784 
C          C       0.15245   0.53243   0.14784 
C          C       0.13424   0.95335   0.31451 
C          C       0.04665   0.18088   0.31451 
C          C       0.81912   0.86576   0.31451 
C          C       0.80090   0.28669   0.48117 
C          C       0.71331   0.51422   0.48117 
C          C       0.48578   0.19910   0.48117 
C          C       0.53243   0.37998   0.35216 
C          C       0.62002   0.15245   0.35216 
C          C       0.84755   0.46757   0.35216 
C          C       0.19910   0.71331   0.01883 
C          C       0.28669   0.48578   0.01883 
C          C       0.51422   0.80090   0.01883 
C          C       0.86576   0.04665   0.18549 
C          C       0.95335   0.81912   0.18549 
C          C       0.18088   0.13424   0.18549 
C          C       0.37932   0.53373   0.36247 
C          C       0.46627   0.84559   0.36247 
C          C       0.15441   0.62068   0.36247 
C          C       0.04599   0.86706   0.02914 
C          C       0.13294   0.17892   0.02914 
C          C       0.82108   0.95401   0.02914 
C          C       0.71265   0.20040   0.19581 
C          C       0.79960   0.51226   0.19581 
C          C       0.48774   0.28735   0.19581 
C          C       0.62068   0.46627   0.13753 
C          C       0.53373   0.15441   0.13753 
C          C       0.84559   0.37932   0.13753 
C          C       0.28735   0.79960   0.30419 
C          C       0.20040   0.48774   0.30419 
C          C       0.51226   0.71265   0.30419 
C          C       0.95401   0.13294   0.47086 
C          C       0.86706   0.82108   0.47086 
C          C       0.17892   0.04599   0.47086 
C          C       0.41094   0.54417   0.29718 
C          C       0.45583   0.86677   0.29718 
C          C       0.13323   0.58906   0.29718 
C          C       0.07761   0.87750   0.46385 
C          C       0.12250   0.20010   0.46385 
C          C       0.79990   0.92239   0.46385 
C          C       0.74427   0.21084   0.13051 
C          C       0.78916   0.53344   0.13051 
C          C       0.46656   0.25573   0.13051 
C          C       0.58906   0.45583   0.20282 
C          C       0.54417   0.13323   0.20282 
C          C       0.86677   0.41094   0.20282 
C          C       0.25573   0.78916   0.36949 
C          C       0.21084   0.46656   0.36949 
C          C       0.53344   0.74427   0.36949 
C          C       0.92239   0.12250   0.03615 
C          C       0.87750   0.79990   0.03615 
C          C       0.20010   0.07761   0.03615 
C          C       0.33723   0.51668   0.32347 
C          C       0.48332   0.82055   0.32347 
C          C       0.17945   0.66277   0.32347 
C          C       0.00390   0.85001   0.49014 
C          C       0.14999   0.15388   0.49014 
C          C       0.84612   0.99610   0.49014 
C          C       0.67056   0.18335   0.15680 
C          C       0.81665   0.48722   0.15680 
C          C       0.51278   0.32944   0.15680 
C          C       0.66277   0.48332   0.17653 
C          C       0.51668   0.17945   0.17653 
C          C       0.82055   0.33723   0.17653 
C          C       0.32944   0.81665   0.34320 
C          C       0.18335   0.51278   0.34320 
C          C       0.48722   0.67056   0.34320 
C          C       0.99610   0.14999   0.00986 
C          C       0.85001   0.84612   0.00986 
C          C       0.15388   0.00390   0.00986 
F          F       0.50621   0.55437   0.38488 
F          F       0.44563   0.95184   0.38488 
F          F       0.04816   0.49379   0.38488 
F          F       0.17288   0.88770   0.05155 
F          F       0.11230   0.28517   0.05155 
F          F       0.71483   0.82712   0.05155 
F          F       0.83954   0.22104   0.21821 
F          F       0.77896   0.61851   0.21821 
F          F       0.38149   0.16046   0.21821 
F          F       0.49379   0.44563   0.11512 
F          F       0.55437   0.04816   0.11512 
F          F       0.95184   0.50621   0.11512 
F          F       0.16046   0.77896   0.28179 
F          F       0.22104   0.38149   0.28179 
F          F       0.61851   0.83954   0.28179 
F          F       0.82712   0.11230   0.44845 
F          F       0.88770   0.71483   0.44845 
F          F       0.28517   0.17288   0.44845 
F          F       0.55340   0.51539   0.37750 
F          F       0.48461   0.03801   0.37750 
F          F       0.96199   0.44660   0.37750 
F          F       0.22007   0.84872   0.04416 
F          F       0.15128   0.37134   0.04416 
F          F       0.62866   0.77993   0.04416 
F          F       0.88673   0.18206   0.21083 
F          F       0.81794   0.70468   0.21083 
F          F       0.29532   0.11327   0.21083 
F          F       0.44660   0.48461   0.12250 
F          F       0.51539   0.96199   0.12250 
F          F       0.03801   0.55340   0.12250 
F          F       0.11327   0.81794   0.28917 
F          F       0.18206   0.29532   0.28917 
F          F       0.70468   0.88673   0.28917 
F          F       0.77993   0.15128   0.45584 
F          F       0.84872   0.62866   0.45584 
F          F       0.37134   0.22007   0.45584 
H          H       0.56846   0.46737   0.43665 
H          H       0.53263   0.10109   0.43665 
H          H       0.89891   0.43154   0.43665 
H          H       0.23513   0.80070   0.10332 
H          H       0.19930   0.43442   0.10332 
H          H       0.56558   0.76487   0.10332 
H          H       0.90179   0.13404   0.26998 
H          H       0.86596   0.76776   0.26998 
H          H       0.23224   0.09821   0.26998 
H          H       0.43154   0.53263   0.06335 
H          H       0.46737   0.89891   0.06335 
H          H       0.10109   0.56846   0.06335 
H          H       0.09821   0.86596   0.23002 
H          H       0.13404   0.23224   0.23002 
H          H       0.76776   0.90179   0.23002 
H          H       0.76487   0.19930   0.39668 
H          H       0.80070   0.56558   0.39668 
H          H       0.43442   0.23513   0.39668 
H          H       0.57722   0.33755   0.43973 
H          H       0.66245   0.23967   0.43973 
H          H       0.76033   0.42278   0.43973 
H          H       0.24389   0.67088   0.10640 
H          H       0.32912   0.57300   0.10640 
H          H       0.42700   0.75611   0.10640 
H          H       0.91055   0.00422   0.27306 
H          H       0.99578   0.90634   0.27306 
H          H       0.09366   0.08945   0.27306 
H          H       0.42278   0.66245   0.06027 
H          H       0.33755   0.76033   0.06027 
H          H       0.23967   0.57722   0.06027 
H          H       0.08945   0.99578   0.22694 
H          H       0.00422   0.09366   0.22694 
H          H       0.90634   0.91055   0.22694 
H          H       0.75611   0.32912   0.39360 
H          H       0.67088   0.42700   0.39360 
H          H       0.57300   0.24389   0.39360 
H          H       0.65597   0.41663   0.11868 
H          H       0.58337   0.23934   0.11868 
H          H       0.76066   0.34403   0.11868 
H          H       0.32264   0.74996   0.28534 
H          H       0.25004   0.57267   0.28534 
H          H       0.42733   0.67736   0.28534 
H          H       0.98930   0.08330   0.45201 
H          H       0.91670   0.90601   0.45201 
H          H       0.09399   0.01070   0.45201 
H          H       0.34403   0.58337   0.38133 
H          H       0.41663   0.76066   0.38133 
H          H       0.23934   0.65597   0.38133 
H          H       0.01070   0.91670   0.04799 
H          H       0.08330   0.09399   0.04799 
H          H       0.90601   0.98930   0.04799 
H          H       0.67736   0.25004   0.21466 
H          H       0.74996   0.42733   0.21466 
H          H       0.57267   0.32264   0.21466 
H          H       0.70242   0.40865   0.02727 
H          H       0.59135   0.29377   0.02727 
H          H       0.70623   0.29758   0.02727 
H          H       0.36909   0.74198   0.19394 
H          H       0.25802   0.62710   0.19394 
H          H       0.37290   0.63091   0.19394 
H          H       0.03575   0.07532   0.36060 
H          H       0.92468   0.96044   0.36060 
H          H       0.03956   0.96425   0.36060 
H          H       0.29758   0.59135   0.47273 
H          H       0.40865   0.70623   0.47273 
H          H       0.29377   0.70242   0.47273 
H          H       0.96425   0.92468   0.13940 
H          H       0.07532   0.03956   0.13940 
H          H       0.96044   0.03575   0.13940 
H          H       0.63091   0.25802   0.30606 
H          H       0.74198   0.37290   0.30606 
H          H       0.62710   0.36909   0.30606 
H          H       0.49757   0.62356   0.03837 
H          H       0.37644   0.87401   0.03837 
H          H       0.12599   0.50243   0.03837 
H          H       0.16424   0.95689   0.20504 
H          H       0.04311   0.20734   0.20504 
H          H       0.79266   0.83576   0.20504 
H          H       0.83090   0.29023   0.37171 
H          H       0.70977   0.54068   0.37171 
H          H       0.45932   0.16910   0.37171 
H          H       0.50243   0.37644   0.46163 
H          H       0.62356   0.12599   0.46163 
H          H       0.87401   0.49757   0.46163 
H          H       0.16910   0.70977   0.12829 
H          H       0.29023   0.45932   0.12829 
H          H       0.54068   0.83090   0.12829 
H          H       0.83576   0.04311   0.29496 
H          H       0.95689   0.79266   0.29496 
H          H       0.20734   0.16424   0.29496 
H          H       0.48824   0.69554   0.09742 
H          H       0.30446   0.79270   0.09742 
H          H       0.20730   0.51176   0.09742 
H          H       0.15491   0.02887   0.26409 
H          H       0.97113   0.12603   0.26409 
H          H       0.87397   0.84509   0.26409 
H          H       0.82157   0.36221   0.43075 
H          H       0.63779   0.45937   0.43075 
H          H       0.54063   0.17843   0.43075 
H          H       0.51176   0.30446   0.40258 
H          H       0.69554   0.20730   0.40258 
H          H       0.79270   0.48824   0.40258 
H          H       0.17843   0.63779   0.06925 
H          H       0.36221   0.54063   0.06925 
H          H       0.45937   0.82157   0.06925 
H          H       0.84509   0.97113   0.23591 
H          H       0.02887   0.87397   0.23591 
H          H       0.12603   0.15491   0.23591 
H          H       0.50821   0.69350   0.00319 
H          H       0.30650   0.81471   0.00319 
H          H       0.18529   0.49179   0.00319 
H          H       0.17488   0.02683   0.16986 
H          H       0.97317   0.14804   0.16986 
H          H       0.85196   0.82512   0.16986 
H          H       0.84154   0.36017   0.33652 
H          H       0.63983   0.48138   0.33652 
H          H       0.51862   0.15846   0.33652 
H          H       0.49179   0.30650   0.49681 
H          H       0.69350   0.18529   0.49681 
H          H       0.81471   0.50821   0.49681 
H          H       0.15846   0.63983   0.16348 
H          H       0.36017   0.51862   0.16348 
H          H       0.48138   0.84154   0.16348 
H          H       0.82512   0.97317   0.33014 
H          H       0.02683   0.85196   0.33014 
H          H       0.14804   0.17488   0.33014 
H          H       0.53365   0.69155   0.09002 
H          H       0.30845   0.84210   0.09002 
H          H       0.15790   0.46635   0.09002 
H          H       0.20032   0.02488   0.25669 
H          H       0.97512   0.17543   0.25669 
H          H       0.82457   0.79968   0.25669 
H          H       0.86698   0.35822   0.42335 
H          H       0.64178   0.50877   0.42335 
H          H       0.49123   0.13302   0.42335 
H          H       0.46635   0.30845   0.40998 
H          H       0.69155   0.15790   0.40998 
H          H       0.84210   0.53365   0.40998 
H          H       0.13302   0.64178   0.07665 
H          H       0.35822   0.49123   0.07665 
H          H       0.50877   0.86698   0.07665 
H          H       0.79968   0.97512   0.24331 
H          H       0.02488   0.82457   0.24331 
H          H       0.17543   0.20032   0.24331 
H          H       0.49596   0.63286   0.18365 
H          H       0.36714   0.86310   0.18365 
H          H       0.13690   0.50404   0.18365 
H          H       0.16263   0.96619   0.35032 
H          H       0.03381   0.19643   0.35032 
H          H       0.80357   0.83737   0.35032 
H          H       0.82929   0.29953   0.01698 
H          H       0.70047   0.52977   0.01698 
H          H       0.47023   0.17071   0.01698 
H          H       0.50404   0.36714   0.31635 
H          H       0.63286   0.13690   0.31635 
H          H       0.86310   0.49596   0.31635 
H          H       0.17071   0.70047   0.48302 
H          H       0.29953   0.47023   0.48302 
H          H       0.52977   0.82929   0.48302 
H          H       0.83737   0.03381   0.14968 
H          H       0.96619   0.80357   0.14968 
H          H       0.19643   0.16263   0.14968 
H          H       0.45332   0.58631   0.14980 
H          H       0.41369   0.86701   0.14980 
H          H       0.13299   0.54668   0.14980 
H          H       0.11999   0.91964   0.31646 
H          H       0.08036   0.20034   0.31646 
H          H       0.79966   0.88001   0.31646 
H          H       0.78665   0.25298   0.48313 
H          H       0.74702   0.53368   0.48313 
H          H       0.46632   0.21335   0.48313 
H          H       0.54668   0.41369   0.35020 
H          H       0.58631   0.13299   0.35020 
H          H       0.86701   0.45332   0.35020 
H          H       0.21335   0.74702   0.01687 
H          H       0.25298   0.46632   0.01687 
H          H       0.53368   0.78665   0.01687 
H          H       0.88001   0.08036   0.18354 
H          H       0.91964   0.79966   0.18354 
H          H       0.20034   0.11999   0.18354 
H          H       0.44622   0.62905   0.17344 
H          H       0.37095   0.81717   0.17344 
H          H       0.18283   0.55378   0.17344 
H          H       0.11289   0.96238   0.34011 
H          H       0.03762   0.15050   0.34011 
H          H       0.84950   0.88711   0.34011 
H          H       0.77955   0.29572   0.00677 
H          H       0.70428   0.48384   0.00677 
H          H       0.51616   0.22045   0.00677 
H          H       0.55378   0.37095   0.32656 
H          H       0.62905   0.18283   0.32656 
H          H       0.81717   0.44622   0.32656 
H          H       0.22045   0.70428   0.49323 
H          H       0.29572   0.51616   0.49323 
H          H       0.48384   0.77955   0.49323 
H          H       0.88711   0.03762   0.15989 
H          H       0.96238   0.84950   0.15989 
H          H       0.15050   0.11289   0.15989 
H          H       0.37835   0.50877   0.39944 
H          H       0.49123   0.86958   0.39944 
H          H       0.13042   0.62165   0.39944 
H          H       0.04502   0.84210   0.06611 
H          H       0.15790   0.20291   0.06611 
H          H       0.79709   0.95498   0.06611 
H          H       0.71168   0.17544   0.23278 
H          H       0.82456   0.53625   0.23278 
H          H       0.46375   0.28832   0.23278 
H          H       0.62165   0.49123   0.10056 
H          H       0.50877   0.13042   0.10056 
H          H       0.86958   0.37835   0.10056 
H          H       0.28832   0.82456   0.26722 
H          H       0.17544   0.46375   0.26722 
H          H       0.53625   0.71168   0.26722 
H          H       0.95498   0.15790   0.43389 
H          H       0.84210   0.79709   0.43389 
H          H       0.20291   0.04502   0.43389 
H          H       0.41142   0.56808   0.25908 
H          H       0.43192   0.84334   0.25908 
H          H       0.15666   0.58858   0.25908 
H          H       0.07809   0.90141   0.42575 
H          H       0.09859   0.17667   0.42575 
H          H       0.82333   0.92191   0.42575 
H          H       0.74475   0.23475   0.09241 
H          H       0.76525   0.51001   0.09241 
H          H       0.48999   0.25525   0.09241 
H          H       0.58858   0.43192   0.24092 
H          H       0.56808   0.15666   0.24092 
H          H       0.84334   0.41142   0.24092 
H          H       0.25525   0.76525   0.40759 
H          H       0.23475   0.48999   0.40759 
H          H       0.51001   0.74475   0.40759 
H          H       0.92191   0.09859   0.07425 
H          H       0.90141   0.82333   0.07425 
H          H       0.17667   0.07809   0.07425 
H          H       0.40366   0.51658   0.26187 
H          H       0.48342   0.88708   0.26187 
H          H       0.11292   0.59634   0.26187 
H          H       0.07033   0.84991   0.42854 
H          H       0.15009   0.22041   0.42854 
H          H       0.77959   0.92967   0.42854 
H          H       0.73699   0.18325   0.09520 
H          H       0.81675   0.55375   0.09520 
H          H       0.44625   0.26301   0.09520 
H          H       0.59634   0.48342   0.23813 
H          H       0.51658   0.11292   0.23813 
H          H       0.88708   0.40366   0.23813 
H          H       0.26301   0.81675   0.40480 
H          H       0.18325   0.44625   0.40480 
H          H       0.55375   0.73699   0.40480 
H          H       0.92967   0.15009   0.07146 
H          H       0.84991   0.77959   0.07146 
H          H       0.22041   0.07033   0.07146 
H          H       0.44243   0.55540   0.31995 
H          H       0.44460   0.88703   0.31995 
H          H       0.11297   0.55757   0.31995 
H          H       0.10910   0.88873   0.48661 
H          H       0.11127   0.22036   0.48661 
H          H       0.77964   0.89090   0.48661 
H          H       0.77576   0.22207   0.15328 
H          H       0.77793   0.55370   0.15328 
H          H       0.44630   0.22424   0.15328 
H          H       0.55757   0.44460   0.18005 
H          H       0.55540   0.11297   0.18005 
H          H       0.88703   0.44243   0.18005 
H          H       0.22424   0.77793   0.34672 
H          H       0.22207   0.44630   0.34672 
H          H       0.55370   0.77576   0.34672 
H          H       0.89090   0.11127   0.01339 
H          H       0.88873   0.77964   0.01339 
H          H       0.22036   0.10910   0.01339 
H          H       0.32861   0.48763   0.29204 
H          H       0.51237   0.84098   0.29204 
H          H       0.15902   0.67139   0.29204 
H          H       0.99528   0.82096   0.45871 
H          H       0.17904   0.17431   0.45871 
H          H       0.82569   0.00472   0.45871 
H          H       0.66194   0.15430   0.12537 
H          H       0.84570   0.50765   0.12537 
H          H       0.49235   0.33806   0.12537 
H          H       0.67139   0.51237   0.20796 
H          H       0.48763   0.15902   0.20796 
H          H       0.84098   0.32861   0.20796 
H          H       0.33806   0.84570   0.37463 
H          H       0.15430   0.49235   0.37463 
H          H       0.50765   0.66194   0.37463 
H          H       0.00472   0.17904   0.04129 
H          H       0.82096   0.82569   0.04129 
H          H       0.17431   0.99528   0.04129 
H          H       0.33737   0.53888   0.28079 
H          H       0.46112   0.79849   0.28079 
H          H       0.20151   0.66263   0.28079 
H          H       0.00404   0.87221   0.44745 
H          H       0.12779   0.13182   0.44745 
H          H       0.86818   0.99596   0.44745 
H          H       0.67070   0.20555   0.11412 
H          H       0.79445   0.46516   0.11412 
H          H       0.53484   0.32930   0.11412 
H          H       0.66263   0.46112   0.21921 
H          H       0.53888   0.20151   0.21921 
H          H       0.79849   0.33737   0.21921 
H          H       0.32930   0.79445   0.38588 
H          H       0.20555   0.53484   0.38588 
H          H       0.46516   0.67070   0.38588 
H          H       0.99596   0.12779   0.05255 
H          H       0.87221   0.86818   0.05255 
H          H       0.13182   0.00404   0.05255 
H          H       0.31288   0.50962   0.36674 
H          H       0.49038   0.80326   0.36674 
H          H       0.19674   0.68712   0.36674 
H          H       0.97955   0.84295   0.03341 
H          H       0.15705   0.13659   0.03341 
H          H       0.86341   0.02045   0.03341 
H          H       0.64621   0.17629   0.20008 
H          H       0.82371   0.46993   0.20008 
H          H       0.53007   0.35379   0.20008 
H          H       0.68712   0.49038   0.13326 
H          H       0.50962   0.19674   0.13326 
H          H       0.80326   0.31288   0.13326 
H          H       0.35379   0.82371   0.29992 
H          H       0.17629   0.53007   0.29992 
H          H       0.46993   0.64621   0.29992 
H          H       0.02045   0.15705   0.46659 
H          H       0.84295   0.86341   0.46659 
H          H       0.13659   0.97955   0.46659 
C          C       0.54880   0.46001   0.98738 
C          C       0.53999   0.08879   0.98738 
C          C       0.91121   0.45120   0.98738 
C          C       0.21547   0.79334   0.65404 
C          C       0.20666   0.42212   0.65404 
C          C       0.57788   0.78453   0.65404 
C          C       0.88213   0.12668   0.82071 
C          C       0.87332   0.75546   0.82071 
C          C       0.24454   0.11787   0.82071 
C          C       0.45120   0.53999   0.51262 
C          C       0.46001   0.91121   0.51262 
C          C       0.08879   0.54880   0.51262 
C          C       0.11787   0.87332   0.67929 
C          C       0.12668   0.24454   0.67929 
C          C       0.75546   0.88213   0.67929 
C          C       0.78453   0.20666   0.84596 
C          C       0.79334   0.57788   0.84596 
C          C       0.42212   0.21547   0.84596 
N          N       0.54852   0.43481   0.53958 
N          N       0.56519   0.11371   0.53958 
N          N       0.88629   0.45148   0.53958 
N          N       0.21519   0.76814   0.70625 
N          N       0.23186   0.44704   0.70625 
N          N       0.55296   0.78481   0.70625 
N          N       0.88185   0.10148   0.87292 
N          N       0.89852   0.78038   0.87292 
N          N       0.21962   0.11815   0.87292 
N          N       0.45148   0.56519   0.96042 
N          N       0.43481   0.88629   0.96042 
N          N       0.11371   0.54852   0.96042 
N          N       0.11815   0.89852   0.62708 
N          N       0.10148   0.21962   0.62708 
N          N       0.78038   0.88185   0.62708 
N          N       0.78481   0.23186   0.79375 
N          N       0.76814   0.55296   0.79375 
N          N       0.44704   0.21519   0.79375 
C          C       0.57264   0.41493   0.53483 
C          C       0.58507   0.15771   0.53483 
C          C       0.84229   0.42736   0.53483 
C          C       0.23931   0.74826   0.70150 
C          C       0.25174   0.49104   0.70150 
C          C       0.50896   0.76069   0.70150 
C          C       0.90597   0.08160   0.86816 
C          C       0.91840   0.82438   0.86816 
C          C       0.17562   0.09403   0.86816 
C          C       0.42736   0.58507   0.96517 
C          C       0.41493   0.84229   0.96517 
C          C       0.15771   0.57264   0.96517 
C          C       0.09403   0.91840   0.63184 
C          C       0.08160   0.17562   0.63184 
C          C       0.82438   0.90597   0.63184 
C          C       0.76069   0.25174   0.79850 
C          C       0.74826   0.50896   0.79850 
C          C       0.49104   0.23931   0.79850 
C          C       0.56063   0.38088   0.98464 
C          C       0.61912   0.17975   0.98464 
C          C       0.82025   0.43937   0.98464 
C          C       0.22730   0.71421   0.65131 
C          C       0.28579   0.51308   0.65131 
C          C       0.48692   0.77270   0.65131 
C          C       0.89396   0.04755   0.81797 
C          C       0.95245   0.84642   0.81797 
C          C       0.15358   0.10604   0.81797 
C          C       0.43937   0.61912   0.51536 
C          C       0.38088   0.82025   0.51536 
C          C       0.17975   0.56063   0.51536 
C          C       0.10604   0.95245   0.68203 
C          C       0.04755   0.15358   0.68203 
C          C       0.84642   0.89396   0.68203 
C          C       0.77270   0.28579   0.84869 
C          C       0.71421   0.48692   0.84869 
C          C       0.51308   0.22730   0.84869 
C          C       0.58515   0.36238   0.98031 
C          C       0.63762   0.22277   0.98031 
C          C       0.77723   0.41485   0.98031 
C          C       0.25182   0.69571   0.64697 
C          C       0.30429   0.55610   0.64697 
C          C       0.44390   0.74818   0.64697 
C          C       0.91848   0.02905   0.81364 
C          C       0.97095   0.88944   0.81364 
C          C       0.11056   0.08152   0.81364 
C          C       0.41485   0.63762   0.51970 
C          C       0.36238   0.77723   0.51970 
C          C       0.22277   0.58515   0.51970 
C          C       0.08152   0.97095   0.68636 
C          C       0.02905   0.11056   0.68636 
C          C       0.88944   0.91848   0.68636 
C          C       0.74818   0.30429   0.85303 
C          C       0.69571   0.44390   0.85303 
C          C       0.55610   0.25182   0.85303 
C          C       0.61945   0.37503   0.52873 
C          C       0.62497   0.24442   0.52873 
C          C       0.75558   0.38055   0.52873 
C          C       0.28612   0.70836   0.69539 
C          C       0.29164   0.57775   0.69539 
C          C       0.42225   0.71388   0.69539 
C          C       0.95278   0.04170   0.86206 
C          C       0.95830   0.91109   0.86206 
C          C       0.08891   0.04722   0.86206 
C          C       0.38055   0.62497   0.97127 
C          C       0.37503   0.75558   0.97127 
C          C       0.24442   0.61945   0.97127 
C          C       0.04722   0.95830   0.63794 
C          C       0.04170   0.08891   0.63794 
C          C       0.91109   0.95278   0.63794 
C          C       0.71388   0.29164   0.80461 
C          C       0.70836   0.42225   0.80461 
C          C       0.57775   0.28612   0.80461 
C          C       0.63010   0.40780   0.58039 
C          C       0.59220   0.22230   0.58039 
C          C       0.77770   0.36990   0.58039 
C          C       0.29677   0.74113   0.74706 
C          C       0.25887   0.55563   0.74706 
C          C       0.44437   0.70323   0.74706 
C          C       0.96343   0.07447   0.91373 
C          C       0.92553   0.88897   0.91373 
C          C       0.11103   0.03657   0.91373 
C          C       0.36990   0.59220   0.91961 
C          C       0.40780   0.77770   0.91961 
C          C       0.22230   0.63010   0.91961 
C          C       0.03657   0.92553   0.58627 
C          C       0.07447   0.11103   0.58627 
C          C       0.88897   0.96343   0.58627 
C          C       0.70323   0.25887   0.75294 
C          C       0.74113   0.44437   0.75294 
C          C       0.55563   0.29677   0.75294 
C          C       0.60739   0.42837   0.58385 
C          C       0.57163   0.17902   0.58385 
C          C       0.82098   0.39261   0.58385 
C          C       0.27406   0.76170   0.75052 
C          C       0.23830   0.51235   0.75052 
C          C       0.48765   0.72594   0.75052 
C          C       0.94072   0.09504   0.91718 
C          C       0.90496   0.84569   0.91718 
C          C       0.15431   0.05928   0.91718 
C          C       0.39261   0.57163   0.91615 
C          C       0.42837   0.82098   0.91615 
C          C       0.17902   0.60739   0.91615 
C          C       0.05928   0.90496   0.58282 
C          C       0.09504   0.15431   0.58282 
C          C       0.84569   0.94072   0.58282 
C          C       0.72594   0.23830   0.74948 
C          C       0.76170   0.48765   0.74948 
C          C       0.51235   0.27406   0.74948 
C          C       0.64359   0.35333   0.52686 
C          C       0.64667   0.29026   0.52686 
C          C       0.70974   0.35641   0.52686 
C          C       0.31026   0.68666   0.69353 
C          C       0.31334   0.62359   0.69353 
C          C       0.37641   0.68974   0.69353 
C          C       0.97692   0.02000   0.86019 
C          C       0.98000   0.95693   0.86019 
C          C       0.04307   0.02308   0.86019 
C          C       0.35641   0.64667   0.97314 
C          C       0.35333   0.70974   0.97314 
C          C       0.29026   0.64359   0.97314 
C          C       0.02308   0.98000   0.63981 
C          C       0.02000   0.04307   0.63981 
C          C       0.95693   0.97692   0.63981 
C          C       0.68974   0.31334   0.80647 
C          C       0.68666   0.37641   0.80647 
C          C       0.62359   0.31026   0.80647 
C          C       0.68671   0.37556   0.52680 
C          C       0.62444   0.31115   0.52680 
C          C       0.68885   0.31329   0.52680 
C          C       0.35338   0.70889   0.69347 
C          C       0.29111   0.64448   0.69347 
C          C       0.35552   0.64662   0.69347 
C          C       0.02004   0.04223   0.86013 
C          C       0.95777   0.97782   0.86013 
C          C       0.02218   0.97996   0.86013 
C          C       0.31329   0.62444   0.97320 
C          C       0.37556   0.68885   0.97320 
C          C       0.31115   0.68671   0.97320 
C          C       0.97996   0.95777   0.63987 
C          C       0.04223   0.02218   0.63987 
C          C       0.97782   0.02004   0.63987 
C          C       0.64662   0.29111   0.80653 
C          C       0.70889   0.35552   0.80653 
C          C       0.64448   0.35338   0.80653 
C          C       0.52331   0.47984   0.99538 
C          C       0.52016   0.04347   0.99538 
C          C       0.95653   0.47669   0.99538 
C          C       0.18998   0.81317   0.66205 
C          C       0.18683   0.37680   0.66205 
C          C       0.62320   0.81002   0.66205 
C          C       0.85664   0.14651   0.82871 
C          C       0.85349   0.71014   0.82871 
C          C       0.28986   0.14336   0.82871 
C          C       0.47669   0.52016   0.50462 
C          C       0.47984   0.95653   0.50462 
C          C       0.04347   0.52331   0.50462 
C          C       0.14336   0.85349   0.67129 
C          C       0.14651   0.28986   0.67129 
C          C       0.71014   0.85664   0.67129 
C          C       0.81002   0.18683   0.83795 
C          C       0.81317   0.62320   0.83795 
C          C       0.37680   0.18998   0.83795 
C          C       0.52653   0.50771   0.93746 
C          C       0.49229   0.01882   0.93746 
C          C       0.98118   0.47347   0.93746 
C          C       0.19320   0.84104   0.60413 
C          C       0.15896   0.35215   0.60413 
C          C       0.64785   0.80680   0.60413 
C          C       0.85986   0.17438   0.77080 
C          C       0.82562   0.68549   0.77080 
C          C       0.31451   0.14014   0.77080 
C          C       0.47347   0.49229   0.56254 
C          C       0.50771   0.98118   0.56254 
C          C       0.01882   0.52653   0.56254 
C          C       0.14014   0.82562   0.72920 
C          C       0.17438   0.31451   0.72920 
C          C       0.68549   0.85986   0.72920 
C          C       0.80680   0.15896   0.89587 
C          C       0.84104   0.64785   0.89587 
C          C       0.35215   0.19320   0.89587 
C          C       0.50287   0.52739   0.94162 
C          C       0.47261   0.97548   0.94162 
C          C       0.02452   0.49713   0.94162 
C          C       0.16954   0.86072   0.60829 
C          C       0.13928   0.30881   0.60829 
C          C       0.69119   0.83046   0.60829 
C          C       0.83620   0.19406   0.77495 
C          C       0.80594   0.64215   0.77495 
C          C       0.35785   0.16380   0.77495 
C          C       0.49713   0.47261   0.55838 
C          C       0.52739   0.02452   0.55838 
C          C       0.97548   0.50287   0.55838 
C          C       0.16380   0.80594   0.72505 
C          C       0.19406   0.35785   0.72505 
C          C       0.64215   0.83620   0.72505 
C          C       0.83046   0.13928   0.89171 
C          C       0.86072   0.69119   0.89171 
C          C       0.30881   0.16954   0.89171 
C          C       0.47763   0.63486   0.56364 
C          C       0.36514   0.84277   0.56364 
C          C       0.15723   0.52237   0.56364 
C          C       0.14430   0.96819   0.73031 
C          C       0.03181   0.17610   0.73031 
C          C       0.82390   0.85570   0.73031 
C          C       0.81096   0.30153   0.89697 
C          C       0.69847   0.50944   0.89697 
C          C       0.49056   0.18904   0.89697 
C          C       0.52237   0.36514   0.93636 
C          C       0.63486   0.15723   0.93636 
C          C       0.84277   0.47763   0.93636 
C          C       0.18904   0.69847   0.60303 
C          C       0.30153   0.49056   0.60303 
C          C       0.50944   0.81096   0.60303 
C          C       0.85570   0.03181   0.76969 
C          C       0.96819   0.82390   0.76969 
C          C       0.17610   0.14430   0.76969 
C          C       0.50316   0.68159   0.56359 
C          C       0.31841   0.82157   0.56359 
C          C       0.17843   0.49684   0.56359 
C          C       0.16983   0.01492   0.73026 
C          C       0.98508   0.15490   0.73026 
C          C       0.84510   0.83017   0.73026 
C          C       0.83649   0.34826   0.89692 
C          C       0.65174   0.48824   0.89692 
C          C       0.51176   0.16351   0.89692 
C          C       0.49684   0.31841   0.93641 
C          C       0.68159   0.17843   0.93641 
C          C       0.82157   0.50316   0.93641 
C          C       0.16351   0.65174   0.60308 
C          C       0.34826   0.51176   0.60308 
C          C       0.48824   0.83649   0.60308 
C          C       0.83017   0.98508   0.76974 
C          C       0.01492   0.84510   0.76974 
C          C       0.15490   0.16983   0.76974 
C          C       0.46757   0.62002   0.64784 
C          C       0.37998   0.84755   0.64784 
C          C       0.15245   0.53243   0.64784 
C          C       0.13424   0.95335   0.81451 
C          C       0.04665   0.18088   0.81451 
C          C       0.81912   0.86576   0.81451 
C          C       0.80090   0.28669   0.98117 
C          C       0.71331   0.51422   0.98117 
C          C       0.48578   0.19910   0.98117 
C          C       0.53243   0.37998   0.85216 
C          C       0.62002   0.15245   0.85216 
C          C       0.84755   0.46757   0.85216 
C          C       0.19910   0.71331   0.51883 
C          C       0.28669   0.48578   0.51883 
C          C       0.51422   0.80090   0.51883 
C          C       0.86576   0.04665   0.68549 
C          C       0.95335   0.81912   0.68549 
C          C       0.18088   0.13424   0.68549 
C          C       0.37932   0.53373   0.86247 
C          C       0.46627   0.84559   0.86247 
C          C       0.15441   0.62068   0.86247 
C          C       0.04599   0.86706   0.52914 
C          C       0.13294   0.17892   0.52914 
C          C       0.82108   0.95401   0.52914 
C          C       0.71265   0.20040   0.69581 
C          C       0.79960   0.51226   0.69581 
C          C       0.48774   0.28735   0.69581 
C          C       0.62068   0.46627   0.63753 
C          C       0.53373   0.15441   0.63753 
C          C       0.84559   0.37932   0.63753 
C          C       0.28735   0.79960   0.80419 
C          C       0.20040   0.48774   0.80419 
C          C       0.51226   0.71265   0.80419 
C          C       0.95401   0.13294   0.97086 
C          C       0.86706   0.82108   0.97086 
C          C       0.17892   0.04599   0.97086 
C          C       0.41094   0.54417   0.79718 
C          C       0.45583   0.86677   0.79718 
C          C       0.13323   0.58906   0.79718 
C          C       0.07761   0.87750   0.96385 
C          C       0.12250   0.20010   0.96385 
C          C       0.79990   0.92239   0.96385 
C          C       0.74427   0.21084   0.63051 
C          C       0.78916   0.53344   0.63051 
C          C       0.46656   0.25573   0.63051 
C          C       0.58906   0.45583   0.70282 
C          C       0.54417   0.13323   0.70282 
C          C       0.86677   0.41094   0.70282 
C          C       0.25573   0.78916   0.86949 
C          C       0.21084   0.46656   0.86949 
C          C       0.53344   0.74427   0.86949 
C          C       0.92239   0.12250   0.53615 
C          C       0.87750   0.79990   0.53615 
C          C       0.20010   0.07761   0.53615 
C          C       0.33723   0.51668   0.82347 
C          C       0.48332   0.82055   0.82347 
C          C       0.17945   0.66277   0.82347 
C          C       0.00390   0.85001   0.99014 
C          C       0.14999   0.15388   0.99014 
C          C       0.84612   0.99610   0.99014 
C          C       0.67056   0.18335   0.65680 
C          C       0.81665   0.48722   0.65680 
C          C       0.51278   0.32944   0.65680 
C          C       0.66277   0.48332   0.67653 
C          C       0.51668   0.17945   0.67653 
C          C       0.82055   0.33723   0.67653 
C          C       0.32944   0.81665   0.84320 
C          C       0.18335   0.51278   0.84320 
C          C       0.48722   0.67056   0.84320 
C          C       0.99610   0.14999   0.50986 
C          C       0.85001   0.84612   0.50986 
C          C       0.15388   0.00390   0.50986 
F          F       0.50621   0.55437   0.88488 
F          F       0.44563   0.95184   0.88488 
F          F       0.04816   0.49379   0.88488 
F          F       0.17288   0.88770   0.55155 
F          F       0.11230   0.28517   0.55155 
F          F       0.71483   0.82712   0.55155 
F          F       0.83954   0.22104   0.71821 
F          F       0.77896   0.61851   0.71821 
F          F       0.38149   0.16046   0.71821 
F          F       0.49379   0.44563   0.61512 
F          F       0.55437   0.04816   0.61512 
F          F       0.95184   0.50621   0.61512 
F          F       0.16046   0.77896   0.78179 
F          F       0.22104   0.38149   0.78179 
F          F       0.61851   0.83954   0.78179 
F          F       0.82712   0.11230   0.94845 
F          F       0.88770   0.71483   0.94845 
F          F       0.28517   0.17288   0.94845 
F          F       0.55340   0.51539   0.87750 
F          F       0.48461   0.03801   0.87750 
F          F       0.96199   0.44660   0.87750 
F          F       0.22007   0.84872   0.54416 
F          F       0.15128   0.37134   0.54416 
F          F       0.62866   0.77993   0.54416 
F          F       0.88673   0.18206   0.71083 
F          F       0.81794   0.70468   0.71083 
F          F       0.29532   0.11327   0.71083 
F          F       0.44660   0.48461   0.62250 
F          F       0.51539   0.96199   0.62250 
F          F       0.03801   0.55340   0.62250 
F          F       0.11327   0.81794   0.78917 
F          F       0.18206   0.29532   0.78917 
F          F       0.70468   0.88673   0.78917 
F          F       0.77993   0.15128   0.95584 
F          F       0.84872   0.62866   0.95584 
F          F       0.37134   0.22007   0.95584 
H          H       0.56846   0.46737   0.93665 
H          H       0.53263   0.10109   0.93665 
H          H       0.89891   0.43154   0.93665 
H          H       0.23513   0.80070   0.60332 
H          H       0.19930   0.43442   0.60332 
H          H       0.56558   0.76487   0.60332 
H          H       0.90179   0.13404   0.76998 
H          H       0.86596   0.76776   0.76998 
H          H       0.23224   0.09821   0.76998 
H          H       0.43154   0.53263   0.56335 
H          H       0.46737   0.89891   0.56335 
H          H       0.10109   0.56846   0.56335 
H          H       0.09821   0.86596   0.73002 
H          H       0.13404   0.23224   0.73002 
H          H       0.76776   0.90179   0.73002 
H          H       0.76487   0.19930   0.89668 
H          H       0.80070   0.56558   0.89668 
H          H       0.43442   0.23513   0.89668 
H          H       0.57722   0.33755   0.93973 
H          H       0.66245   0.23967   0.93973 
H          H       0.76033   0.42278   0.93973 
H          H       0.24389   0.67088   0.60640 
H          H       0.32912   0.57300   0.60640 
H          H       0.42700   0.75611   0.60640 
H          H       0.91055   0.00422   0.77306 
H          H       0.99578   0.90634   0.77306 
H          H       0.09366   0.08945   0.77306 
H          H       0.42278   0.66245   0.56027 
H          H       0.33755   0.76033   0.56027 
H          H       0.23967   0.57722   0.56027 
H          H       0.08945   0.99578   0.72694 
H          H       0.00422   0.09366   0.72694 
H          H       0.90634   0.91055   0.72694 
H          H       0.75611   0.32912   0.89360 
H          H       0.67088   0.42700   0.89360 
H          H       0.57300   0.24389   0.89360 
H          H       0.65597   0.41663   0.61868 
H          H       0.58337   0.23934   0.61868 
H          H       0.76066   0.34403   0.61868 
H          H       0.32264   0.74996   0.78534 
H          H       0.25004   0.57267   0.78534 
H          H       0.42733   0.67736   0.78534 
H          H       0.98930   0.08330   0.95201 
H          H       0.91670   0.90601   0.95201 
H          H       0.09399   0.01070   0.95201 
H          H       0.34403   0.58337   0.88133 
H          H       0.41663   0.76066   0.88133 
H          H       0.23934   0.65597   0.88133 
H          H       0.01070   0.91670   0.54799 
H          H       0.08330   0.09399   0.54799 
H          H       0.90601   0.98930   0.54799 
H          H       0.67736   0.25004   0.71466 
H          H       0.74996   0.42733   0.71466 
H          H       0.57267   0.32264   0.71466 
H          H       0.70242   0.40865   0.52727 
H          H       0.59135   0.29377   0.52727 
H          H       0.70623   0.29758   0.52727 
H          H       0.36909   0.74198   0.69394 
H          H       0.25802   0.62710   0.69394 
H          H       0.37290   0.63091   0.69394 
H          H       0.03575   0.07532   0.86060 
H          H       0.92468   0.96044   0.86060 
H          H       0.03956   0.96425   0.86060 
H          H       0.29758   0.59135   0.97273 
H          H       0.40865   0.70623   0.97273 
H          H       0.29377   0.70242   0.97273 
H          H       0.96425   0.92468   0.63940 
H          H       0.07532   0.03956   0.63940 
H          H       0.96044   0.03575   0.63940 
H          H       0.63091   0.25802   0.80606 
H          H       0.74198   0.37290   0.80606 
H          H       0.62710   0.36909   0.80606 
H          H       0.49757   0.62356   0.53837 
H          H       0.37644   0.87401   0.53837 
H          H       0.12599   0.50243   0.53837 
H          H       0.16424   0.95689   0.70504 
H          H       0.04311   0.20734   0.70504 
H          H       0.79266   0.83576   0.70504 
H          H       0.83090   0.29023   0.87171 
H          H       0.70977   0.54068   0.87171 
H          H       0.45932   0.16910   0.87171 
H          H       0.50243   0.37644   0.96163 
H          H       0.62356   0.12599   0.96163 
H          H       0.87401   0.49757   0.96163 
H          H       0.16910   0.70977   0.62829 
H          H       0.29023   0.45932   0.62829 
H          H       0.54068   0.83090   0.62829 
H          H       0.83576   0.04311   0.79496 
H          H       0.95689   0.79266   0.79496 
H          H       0.20734   0.16424   0.79496 
H          H       0.48824   0.69554   0.59742 
H          H       0.30446   0.79270   0.59742 
H          H       0.20730   0.51176   0.59742 
H          H       0.15491   0.02887   0.76409 
H          H       0.97113   0.12603   0.76409 
H          H       0.87397   0.84509   0.76409 
H          H       0.82157   0.36221   0.93075 
H          H       0.63779   0.45937   0.93075 
H          H       0.54063   0.17843   0.93075 
H          H       0.51176   0.30446   0.90258 
H          H       0.69554   0.20730   0.90258 
H          H       0.79270   0.48824   0.90258 
H          H       0.17843   0.63779   0.56925 
H          H       0.36221   0.54063   0.56925 
H          H       0.45937   0.82157   0.56925 
H          H       0.84509   0.97113   0.73591 
H          H       0.02887   0.87397   0.73591 
H          H       0.12603   0.15491   0.73591 
H          H       0.50821   0.69350   0.50319 
H          H       0.30650   0.81471   0.50319 
H          H       0.18529   0.49179   0.50319 
H          H       0.17488   0.02683   0.66986 
H          H       0.97317   0.14804   0.66986 
H          H       0.85196   0.82512   0.66986 
H          H       0.84154   0.36017   0.83652 
H          H       0.63983   0.48138   0.83652 
H          H       0.51862   0.15846   0.83652 
H          H       0.49179   0.30650   0.99681 
H          H       0.69350   0.18529   0.99681 
H          H       0.81471   0.50821   0.99681 
H          H       0.15846   0.63983   0.66348 
H          H       0.36017   0.51862   0.66348 
H          H       0.48138   0.84154   0.66348 
H          H       0.82512   0.97317   0.83014 
H          H       0.02683   0.85196   0.83014 
H          H       0.14804   0.17488   0.83014 
H          H       0.53365   0.69155   0.59002 
H          H       0.30845   0.84210   0.59002 
H          H       0.15790   0.46635   0.59002 
H          H       0.20032   0.02488   0.75669 
H          H       0.97512   0.17543   0.75669 
H          H       0.82457   0.79968   0.75669 
H          H       0.86698   0.35822   0.92335 
H          H       0.64178   0.50877   0.92335 
H          H       0.49123   0.13302   0.92335 
H          H       0.46635   0.30845   0.90998 
H          H       0.69155   0.15790   0.90998 
H          H       0.84210   0.53365   0.90998 
H          H       0.13302   0.64178   0.57665 
H          H       0.35822   0.49123   0.57665 
H          H       0.50877   0.86698   0.57665 
H          H       0.79968   0.97512   0.74331 
H          H       0.02488   0.82457   0.74331 
H          H       0.17543   0.20032   0.74331 
H          H       0.49596   0.63286   0.68365 
H          H       0.36714   0.86310   0.68365 
H          H       0.13690   0.50404   0.68365 
H          H       0.16263   0.96619   0.85032 
H          H       0.03381   0.19643   0.85032 
H          H       0.80357   0.83737   0.85032 
H          H       0.82929   0.29953   0.51698 
H          H       0.70047   0.52977   0.51698 
H          H       0.47023   0.17071   0.51698 
H          H       0.50404   0.36714   0.81635 
H          H       0.63286   0.13690   0.81635 
H          H       0.86310   0.49596   0.81635 
H          H       0.17071   0.70047   0.98302 
H          H       0.29953   0.47023   0.98302 
H          H       0.52977   0.82929   0.98302 
H          H       0.83737   0.03381   0.64968 
H          H       0.96619   0.80357   0.64968 
H          H       0.19643   0.16263   0.64968 
H          H       0.45332   0.58631   0.64980 
H          H       0.41369   0.86701   0.64980 
H          H       0.13299   0.54668   0.64980 
H          H       0.11999   0.91964   0.81646 
H          H       0.08036   0.20034   0.81646 
H          H       0.79966   0.88001   0.81646 
H          H       0.78665   0.25298   0.98313 
H          H       0.74702   0.53368   0.98313 
H          H       0.46632   0.21335   0.98313 
H          H       0.54668   0.41369   0.85020 
H          H       0.58631   0.13299   0.85020 
H          H       0.86701   0.45332   0.85020 
H          H       0.21335   0.74702   0.51687 
H          H       0.25298   0.46632   0.51687 
H          H       0.53368   0.78665   0.51687 
H          H       0.88001   0.08036   0.68354 
H          H       0.91964   0.79966   0.68354 
H          H       0.20034   0.11999   0.68354 
H          H       0.44622   0.62905   0.67344 
H          H       0.37095   0.81717   0.67344 
H          H       0.18283   0.55378   0.67344 
H          H       0.11289   0.96238   0.84011 
H          H       0.03762   0.15050   0.84011 
H          H       0.84950   0.88711   0.84011 
H          H       0.77955   0.29572   0.50677 
H          H       0.70428   0.48384   0.50677 
H          H       0.51616   0.22045   0.50677 
H          H       0.55378   0.37095   0.82656 
H          H       0.62905   0.18283   0.82656 
H          H       0.81717   0.44622   0.82656 
H          H       0.22045   0.70428   0.99323 
H          H       0.29572   0.51616   0.99323 
H          H       0.48384   0.77955   0.99323 
H          H       0.88711   0.03762   0.65989 
H          H       0.96238   0.84950   0.65989 
H          H       0.15050   0.11289   0.65989 
H          H       0.37835   0.50877   0.89945 
H          H       0.49123   0.86958   0.89945 
H          H       0.13042   0.62165   0.89945 
H          H       0.04502   0.84210   0.56611 
H          H       0.15790   0.20291   0.56611 
H          H       0.79709   0.95498   0.56611 
H          H       0.71168   0.17544   0.73278 
H          H       0.82456   0.53625   0.73278 
H          H       0.46375   0.28832   0.73278 
H          H       0.62165   0.49123   0.60055 
H          H       0.50877   0.13042   0.60055 
H          H       0.86958   0.37835   0.60055 
H          H       0.28832   0.82456   0.76722 
H          H       0.17544   0.46375   0.76722 
H          H       0.53625   0.71168   0.76722 
H          H       0.95498   0.15790   0.93389 
H          H       0.84210   0.79709   0.93389 
H          H       0.20291   0.04502   0.93389 
H          H       0.41142   0.56808   0.75908 
H          H       0.43192   0.84334   0.75908 
H          H       0.15666   0.58858   0.75908 
H          H       0.07809   0.90141   0.92575 
H          H       0.09859   0.17667   0.92575 
H          H       0.82333   0.92191   0.92575 
H          H       0.74475   0.23475   0.59241 
H          H       0.76525   0.51001   0.59241 
H          H       0.48999   0.25525   0.59241 
H          H       0.58858   0.43192   0.74092 
H          H       0.56808   0.15666   0.74092 
H          H       0.84334   0.41142   0.74092 
H          H       0.25525   0.76525   0.90759 
H          H       0.23475   0.48999   0.90759 
H          H       0.51001   0.74475   0.90759 
H          H       0.92191   0.09859   0.57425 
H          H       0.90141   0.82333   0.57425 
H          H       0.17667   0.07809   0.57425 
H          H       0.40366   0.51658   0.76187 
H          H       0.48342   0.88708   0.76187 
H          H       0.11292   0.59634   0.76187 
H          H       0.07033   0.84991   0.92854 
H          H       0.15009   0.22041   0.92854 
H          H       0.77959   0.92967   0.92854 
H          H       0.73699   0.18325   0.59520 
H          H       0.81675   0.55375   0.59520 
H          H       0.44625   0.26301   0.59520 
H          H       0.59634   0.48342   0.73813 
H          H       0.51658   0.11292   0.73813 
H          H       0.88708   0.40366   0.73813 
H          H       0.26301   0.81675   0.90480 
H          H       0.18325   0.44625   0.90480 
H          H       0.55375   0.73699   0.90480 
H          H       0.92967   0.15009   0.57146 
H          H       0.84991   0.77959   0.57146 
H          H       0.22041   0.07033   0.57146 
H          H       0.44243   0.55540   0.81994 
H          H       0.44460   0.88703   0.81994 
H          H       0.11297   0.55757   0.81994 
H          H       0.10910   0.88873   0.98661 
H          H       0.11127   0.22036   0.98661 
H          H       0.77964   0.89090   0.98661 
H          H       0.77576   0.22207   0.65328 
H          H       0.77793   0.55370   0.65328 
H          H       0.44630   0.22424   0.65328 
H          H       0.55757   0.44460   0.68006 
H          H       0.55540   0.11297   0.68006 
H          H       0.88703   0.44243   0.68006 
H          H       0.22424   0.77793   0.84672 
H          H       0.22207   0.44630   0.84672 
H          H       0.55370   0.77576   0.84672 
H          H       0.89090   0.11127   0.51339 
H          H       0.88873   0.77964   0.51339 
H          H       0.22036   0.10910   0.51339 
H          H       0.32861   0.48763   0.79204 
H          H       0.51237   0.84098   0.79204 
H          H       0.15902   0.67139   0.79204 
H          H       0.99528   0.82096   0.95871 
H          H       0.17904   0.17431   0.95871 
H          H       0.82569   0.00472   0.95871 
H          H       0.66194   0.15430   0.62537 
H          H       0.84570   0.50765   0.62537 
H          H       0.49235   0.33806   0.62537 
H          H       0.67139   0.51237   0.70796 
H          H       0.48763   0.15902   0.70796 
H          H       0.84098   0.32861   0.70796 
H          H       0.33806   0.84570   0.87463 
H          H       0.15430   0.49235   0.87463 
H          H       0.50765   0.66194   0.87463 
H          H       0.00472   0.17904   0.54129 
H          H       0.82096   0.82569   0.54129 
H          H       0.17431   0.99528   0.54129 
H          H       0.33737   0.53888   0.78078 
H          H       0.46112   0.79849   0.78078 
H          H       0.20151   0.66263   0.78078 
H          H       0.00404   0.87221   0.94745 
H          H       0.12779   0.13182   0.94745 
H          H       0.86818   0.99596   0.94745 
H          H       0.67070   0.20555   0.61412 
H          H       0.79445   0.46516   0.61412 
H          H       0.53484   0.32930   0.61412 
H          H       0.66263   0.46112   0.71922 
H          H       0.53888   0.20151   0.71922 
H          H       0.79849   0.33737   0.71922 
H          H       0.32930   0.79445   0.88588 
H          H       0.20555   0.53484   0.88588 
H          H       0.46516   0.67070   0.88588 
H          H       0.99596   0.12779   0.55255 
H          H       0.87221   0.86818   0.55255 
H          H       0.13182   0.00404   0.55255 
H          H       0.31288   0.50962   0.86674 
H          H       0.49038   0.80326   0.86674 
H          H       0.19674   0.68712   0.86674 
H          H       0.97955   0.84295   0.53341 
H          H       0.15705   0.13659   0.53341 
H          H       0.86341   0.02045   0.53341 
H          H       0.64621   0.17629   0.70008 
H          H       0.82371   0.46993   0.70008 
H          H       0.53007   0.35379   0.70008 
H          H       0.68712   0.49038   0.63326 
H          H       0.50962   0.19674   0.63326 
H          H       0.80326   0.31288   0.63326 
H          H       0.35379   0.82371   0.79992 
H          H       0.17629   0.53007   0.79992 
H          H       0.46993   0.64621   0.79992 
H          H       0.02045   0.15705   0.96659 
H          H       0.84295   0.86341   0.96659 
H          H       0.13659   0.97955   0.96659 
