data_crystal
 
_cell_length_a    37.50000
_cell_length_b    37.50000
_cell_length_c    18.80000
_cell_angle_alpha 90.00000
_cell_angle_beta  90.00000
_cell_angle_gamma 120.00000
 
_symmetry_space_group_name_Hall 'P 1'
_symmetry_space_group_name_H-M  'P 1'
 
loop_
_symmetry_equiv_pos_as_xyz
 'x,y,z' 
 
loop_
_atom_site_label
_atom_site_type_symbol
_atom_site_fract_x
_atom_site_fract_y
_atom_site_fract_z
C          C       0.97801   0.02164   0.15555 
C          C       0.97836   0.95637   0.15555 
C          C       0.04363   0.02199   0.15555 
C          C       0.64468   0.35497   0.32222 
C          C       0.64503   0.28970   0.32222 
C          C       0.71030   0.35532   0.32222 
C          C       0.31134   0.68831   0.48889 
C          C       0.31169   0.62304   0.48889 
C          C       0.37696   0.68866   0.48889 
C          C       0.02199   0.97836   0.34445 
C          C       0.02164   0.04363   0.34445 
C          C       0.95637   0.97801   0.34445 
C          C       0.68866   0.31169   0.01111 
C          C       0.68831   0.37696   0.01111 
C          C       0.62304   0.31134   0.01111 
C          C       0.35532   0.64503   0.17778 
C          C       0.35497   0.71030   0.17778 
C          C       0.28970   0.64468   0.17778 
C          C       0.95687   0.97825   0.15616 
C          C       0.02175   0.97862   0.15616 
C          C       0.02138   0.04313   0.15616 
C          C       0.62354   0.31158   0.32283 
C          C       0.68842   0.31195   0.32283 
C          C       0.68805   0.37646   0.32283 
C          C       0.29020   0.64492   0.48950 
C          C       0.35508   0.64529   0.48950 
C          C       0.35471   0.70980   0.48950 
C          C       0.04313   0.02175   0.34384 
C          C       0.97825   0.02138   0.34384 
C          C       0.97862   0.95687   0.34384 
C          C       0.70980   0.35508   0.01050 
C          C       0.64492   0.35471   0.01050 
C          C       0.64529   0.29020   0.01050 
C          C       0.37646   0.68842   0.17717 
C          C       0.31158   0.68805   0.17717 
C          C       0.31195   0.62354   0.17717 
F          F       0.91497   0.95702   0.15588 
F          F       0.04298   0.95795   0.15588 
F          F       0.04205   0.08503   0.15588 
F          F       0.58164   0.29035   0.32255 
F          F       0.70965   0.29128   0.32255 
F          F       0.70872   0.41836   0.32255 
F          F       0.24830   0.62369   0.48922 
F          F       0.37631   0.62462   0.48922 
F          F       0.37538   0.75170   0.48922 
F          F       0.08503   0.04298   0.34412 
F          F       0.95702   0.04205   0.34412 
F          F       0.95795   0.91497   0.34412 
F          F       0.75170   0.37631   0.01078 
F          F       0.62369   0.37538   0.01078 
F          F       0.62462   0.24830   0.01078 
F          F       0.41836   0.70965   0.17745 
F          F       0.29035   0.70872   0.17745 
F          F       0.29128   0.58164   0.17745 
C          C       0.95475   0.04429   0.14840 
C          C       0.95571   0.91046   0.14840 
C          C       0.08954   0.04525   0.14840 
C          C       0.62142   0.37762   0.31507 
C          C       0.62238   0.24379   0.31507 
C          C       0.75621   0.37858   0.31507 
C          C       0.28808   0.71096   0.48173 
C          C       0.28904   0.57713   0.48173 
C          C       0.42287   0.71192   0.48173 
C          C       0.04525   0.95571   0.35160 
C          C       0.04429   0.08954   0.35160 
C          C       0.91046   0.95475   0.35160 
C          C       0.71192   0.28904   0.01827 
C          C       0.71096   0.42287   0.01827 
C          C       0.57713   0.28808   0.01827 
C          C       0.37858   0.62238   0.18493 
C          C       0.37762   0.75621   0.18493 
C          C       0.24379   0.62142   0.18493 
C          C       0.92044   0.03431   0.19117 
C          C       0.96569   0.88613   0.19117 
C          C       0.11387   0.07956   0.19117 
C          C       0.58711   0.36764   0.35784 
C          C       0.63236   0.21946   0.35784 
C          C       0.78054   0.41289   0.35784 
C          C       0.25377   0.70098   0.02450 
C          C       0.29902   0.55280   0.02450 
C          C       0.44720   0.74623   0.02450 
C          C       0.07956   0.96569   0.30883 
C          C       0.03431   0.11387   0.30883 
C          C       0.88613   0.92044   0.30883 
C          C       0.74623   0.29902   0.47550 
C          C       0.70098   0.44720   0.47550 
C          C       0.55280   0.25377   0.47550 
C          C       0.41289   0.63236   0.14216 
C          C       0.36764   0.78054   0.14216 
C          C       0.21946   0.58711   0.14216 
C          C       0.89632   0.05320   0.18124 
C          C       0.94680   0.84312   0.18124 
C          C       0.15688   0.10368   0.18124 
C          C       0.56299   0.38653   0.34791 
C          C       0.61347   0.17645   0.34791 
C          C       0.82355   0.43701   0.34791 
C          C       0.22965   0.71987   0.01457 
C          C       0.28013   0.50979   0.01457 
C          C       0.49021   0.77035   0.01457 
C          C       0.10368   0.94680   0.31876 
C          C       0.05320   0.15688   0.31876 
C          C       0.84312   0.89632   0.31876 
C          C       0.77035   0.28013   0.48543 
C          C       0.71987   0.49021   0.48543 
C          C       0.50979   0.22965   0.48543 
C          C       0.43701   0.61347   0.15209 
C          C       0.38653   0.82355   0.15209 
C          C       0.17645   0.56299   0.15209 
C          C       0.90653   0.08251   0.12579 
C          C       0.91749   0.82402   0.12579 
C          C       0.17598   0.09347   0.12579 
C          C       0.57320   0.41584   0.29246 
C          C       0.58416   0.15735   0.29246 
C          C       0.84265   0.42680   0.29246 
C          C       0.23986   0.74918   0.45912 
C          C       0.25082   0.49069   0.45912 
C          C       0.50931   0.76014   0.45912 
C          C       0.09347   0.91749   0.37421 
C          C       0.08251   0.17598   0.37421 
C          C       0.82402   0.90653   0.37421 
C          C       0.76014   0.25082   0.04088 
C          C       0.74918   0.50931   0.04088 
C          C       0.49069   0.23986   0.04088 
C          C       0.42680   0.58416   0.20754 
C          C       0.41584   0.84265   0.20754 
C          C       0.15735   0.57320   0.20754 
C          C       0.94118   0.09257   0.08130 
C          C       0.90743   0.84861   0.08130 
C          C       0.15139   0.05882   0.08130 
C          C       0.60785   0.42590   0.24796 
C          C       0.57410   0.18194   0.24796 
C          C       0.81806   0.39215   0.24796 
C          C       0.27451   0.75924   0.41463 
C          C       0.24076   0.51528   0.41463 
C          C       0.48472   0.72549   0.41463 
C          C       0.05882   0.90743   0.41870 
C          C       0.09257   0.15139   0.41870 
C          C       0.84861   0.94118   0.41870 
C          C       0.72549   0.24076   0.08537 
C          C       0.75924   0.48472   0.08537 
C          C       0.51528   0.27451   0.08537 
C          C       0.39215   0.57410   0.25204 
C          C       0.42590   0.81806   0.25204 
C          C       0.18194   0.60785   0.25204 
C          C       0.96545   0.07423   0.09538 
C          C       0.92577   0.89122   0.09538 
C          C       0.10878   0.03455   0.09538 
C          C       0.63212   0.40756   0.26204 
C          C       0.59244   0.22455   0.26204 
C          C       0.77545   0.36788   0.26204 
C          C       0.29878   0.74090   0.42871 
C          C       0.25910   0.55789   0.42871 
C          C       0.44211   0.70122   0.42871 
C          C       0.03455   0.92577   0.40463 
C          C       0.07423   0.10878   0.40463 
C          C       0.89122   0.96545   0.40463 
C          C       0.70122   0.25910   0.07129 
C          C       0.74090   0.44211   0.07129 
C          C       0.55789   0.29878   0.07129 
C          C       0.36788   0.59244   0.23796 
C          C       0.40756   0.77545   0.23796 
C          C       0.22455   0.63212   0.23796 
C          C       0.86045   0.04289   0.23192 
C          C       0.95711   0.81756   0.23192 
C          C       0.18244   0.13955   0.23192 
C          C       0.52712   0.37622   0.39859 
C          C       0.62378   0.15089   0.39859 
C          C       0.84911   0.47288   0.39859 
C          C       0.19378   0.70956   0.06525 
C          C       0.29044   0.48423   0.06525 
C          C       0.51577   0.80622   0.06525 
C          C       0.13955   0.95711   0.26808 
C          C       0.04289   0.18244   0.26808 
C          C       0.81756   0.86045   0.26808 
C          C       0.80622   0.29044   0.43475 
C          C       0.70956   0.51577   0.43475 
C          C       0.48423   0.19378   0.43475 
C          C       0.47288   0.62378   0.10141 
C          C       0.37622   0.84911   0.10141 
C          C       0.15089   0.52712   0.10141 
C          C       0.87612   0.05537   0.30824 
C          C       0.94463   0.82075   0.30824 
C          C       0.17925   0.12388   0.30824 
C          C       0.54279   0.38870   0.47491 
C          C       0.61130   0.15408   0.47491 
C          C       0.84592   0.45721   0.47491 
C          C       0.20945   0.72204   0.14158 
C          C       0.27796   0.48742   0.14158 
C          C       0.51258   0.79055   0.14158 
C          C       0.12388   0.94463   0.19176 
C          C       0.05537   0.17925   0.19176 
C          C       0.82075   0.87612   0.19176 
C          C       0.79055   0.27796   0.35842 
C          C       0.72204   0.51258   0.35842 
C          C       0.48742   0.20945   0.35842 
C          C       0.45721   0.61130   0.02509 
C          C       0.38870   0.84592   0.02509 
C          C       0.15408   0.54279   0.02509 
C          C       0.82795   0.99690   0.23011 
C          C       0.00310   0.83105   0.23011 
C          C       0.16895   0.17205   0.23011 
C          C       0.49462   0.33023   0.39678 
C          C       0.66977   0.16438   0.39678 
C          C       0.83562   0.50538   0.39678 
C          C       0.16128   0.66357   0.06345 
C          C       0.33643   0.49772   0.06345 
C          C       0.50228   0.83872   0.06345 
C          C       0.17205   0.00310   0.26989 
C          C       0.99690   0.16895   0.26989 
C          C       0.83105   0.82795   0.26989 
C          C       0.83872   0.33643   0.43655 
C          C       0.66357   0.50228   0.43655 
C          C       0.49772   0.16128   0.43655 
C          C       0.50538   0.66977   0.10322 
C          C       0.33023   0.83562   0.10322 
C          C       0.16438   0.49462   0.10322 
C          C       0.95148   0.12045   0.01611 
C          C       0.87955   0.83103   0.01611 
C          C       0.16897   0.04852   0.01611 
C          C       0.61815   0.45378   0.18277 
C          C       0.54622   0.16436   0.18277 
C          C       0.83564   0.38185   0.18277 
C          C       0.28481   0.78712   0.34944 
C          C       0.21288   0.49770   0.34944 
C          C       0.50230   0.71519   0.34944 
C          C       0.04852   0.87955   0.48390 
C          C       0.12045   0.16897   0.48390 
C          C       0.83103   0.95148   0.48390 
C          C       0.71519   0.21288   0.15056 
C          C       0.78712   0.50230   0.15056 
C          C       0.49770   0.28481   0.15056 
C          C       0.38185   0.54622   0.31723 
C          C       0.45378   0.83564   0.31723 
C          C       0.16436   0.61815   0.31723 
C          C       0.99122   0.16168   0.02739 
C          C       0.83832   0.82954   0.02739 
C          C       0.17046   0.00878   0.02739 
C          C       0.65789   0.49501   0.19406 
C          C       0.50499   0.16287   0.19406 
C          C       0.83713   0.34211   0.19406 
C          C       0.32455   0.82835   0.36073 
C          C       0.17165   0.49621   0.36073 
C          C       0.50379   0.67545   0.36073 
C          C       0.00878   0.83832   0.47260 
C          C       0.16168   0.17046   0.47260 
C          C       0.82954   0.99122   0.47260 
C          C       0.67545   0.17165   0.13927 
C          C       0.82835   0.50379   0.13927 
C          C       0.49621   0.32455   0.13927 
C          C       0.34211   0.50499   0.30594 
C          C       0.49501   0.83713   0.30594 
C          C       0.16287   0.65789   0.30594 
C          C       0.95598   0.09991   0.44882 
C          C       0.90009   0.85607   0.44882 
C          C       0.14393   0.04402   0.44882 
C          C       0.62265   0.43324   0.11548 
C          C       0.56676   0.18940   0.11548 
C          C       0.81060   0.37735   0.11548 
C          C       0.28931   0.76658   0.28215 
C          C       0.23342   0.52274   0.28215 
C          C       0.47726   0.71069   0.28215 
C          C       0.04402   0.90009   0.05119 
C          C       0.09991   0.14393   0.05119 
C          C       0.85607   0.95598   0.05119 
C          C       0.71069   0.23342   0.21785 
C          C       0.76658   0.47726   0.21785 
C          C       0.52274   0.28931   0.21785 
C          C       0.37735   0.56676   0.38452 
C          C       0.43324   0.81060   0.38452 
C          C       0.18940   0.62265   0.38452 
N          N       0.87974   0.09934   0.11372 
N          N       0.90066   0.78040   0.11372 
N          N       0.21960   0.12026   0.11372 
N          N       0.54641   0.43267   0.28039 
N          N       0.56733   0.11373   0.28039 
N          N       0.88627   0.45359   0.28039 
N          N       0.21307   0.76601   0.44705 
N          N       0.23399   0.44707   0.44705 
N          N       0.55293   0.78693   0.44705 
N          N       0.12026   0.90066   0.38628 
N          N       0.09934   0.21960   0.38628 
N          N       0.78040   0.87974   0.38628 
N          N       0.78693   0.23399   0.05295 
N          N       0.76601   0.55293   0.05295 
N          N       0.44707   0.21307   0.05295 
N          N       0.45359   0.56733   0.21961 
N          N       0.43267   0.88627   0.21961 
N          N       0.11373   0.54641   0.21961 
C          C       0.89124   0.13834   0.11138 
C          C       0.86166   0.75290   0.11138 
C          C       0.24710   0.10876   0.11138 
C          C       0.55791   0.47167   0.27804 
C          C       0.52833   0.08623   0.27804 
C          C       0.91377   0.44209   0.27804 
C          C       0.22457   0.80501   0.44471 
C          C       0.19499   0.41957   0.44471 
C          C       0.58043   0.77543   0.44471 
C          C       0.10876   0.86166   0.38862 
C          C       0.13834   0.24710   0.38862 
C          C       0.75290   0.89124   0.38862 
C          C       0.77543   0.19499   0.05529 
C          C       0.80501   0.58043   0.05529 
C          C       0.41957   0.22457   0.05529 
C          C       0.44209   0.52833   0.22196 
C          C       0.47167   0.91377   0.22196 
C          C       0.08623   0.55791   0.22196 
C          C       0.86112   0.15218   0.09716 
C          C       0.84782   0.70894   0.09716 
C          C       0.29106   0.13888   0.09716 
C          C       0.52779   0.48551   0.26382 
C          C       0.51449   0.04227   0.26382 
C          C       0.95773   0.47221   0.26382 
C          C       0.19445   0.81885   0.43049 
C          C       0.18115   0.37561   0.43049 
C          C       0.62439   0.80555   0.43049 
C          C       0.13888   0.84782   0.40285 
C          C       0.15218   0.29106   0.40285 
C          C       0.70894   0.86112   0.40285 
C          C       0.80555   0.18115   0.06951 
C          C       0.81885   0.62439   0.06951 
C          C       0.37561   0.19445   0.06951 
C          C       0.47221   0.51449   0.23618 
C          C       0.48551   0.95773   0.23618 
C          C       0.04227   0.52779   0.23618 
C          C       0.87357   0.18782   0.05650 
C          C       0.81218   0.68575   0.05650 
C          C       0.31425   0.12643   0.05650 
C          C       0.54024   0.52115   0.22317 
C          C       0.47885   0.01908   0.22317 
C          C       0.98092   0.45976   0.22317 
C          C       0.20690   0.85449   0.38984 
C          C       0.14551   0.35242   0.38984 
C          C       0.64758   0.79310   0.38984 
C          C       0.12643   0.81218   0.44349 
C          C       0.18782   0.31425   0.44349 
C          C       0.68575   0.87357   0.44349 
C          C       0.79310   0.14551   0.11016 
C          C       0.85449   0.64758   0.11016 
C          C       0.35242   0.20690   0.11016 
C          C       0.45976   0.47885   0.27683 
C          C       0.52115   0.98092   0.27683 
C          C       0.01908   0.54024   0.27683 
C          C       0.84580   0.20237   0.04221 
C          C       0.79763   0.64343   0.04221 
C          C       0.35657   0.15420   0.04221 
C          C       0.51247   0.53570   0.20888 
C          C       0.46430   0.97676   0.20888 
C          C       0.02324   0.48753   0.20888 
C          C       0.17913   0.86904   0.37554 
C          C       0.13096   0.31010   0.37554 
C          C       0.68990   0.82087   0.37554 
C          C       0.15420   0.79763   0.45779 
C          C       0.20237   0.35657   0.45779 
C          C       0.64343   0.84580   0.45779 
C          C       0.82087   0.13096   0.12446 
C          C       0.86904   0.68990   0.12446 
C          C       0.31010   0.17913   0.12446 
C          C       0.48753   0.46430   0.29112 
C          C       0.53570   0.02324   0.29112 
C          C       0.97676   0.51247   0.29112 
F          F       0.80981   0.09763   0.16731 
F          F       0.90237   0.71218   0.16731 
F          F       0.28782   0.19019   0.16731 
F          F       0.47648   0.43096   0.33398 
F          F       0.56904   0.04551   0.33398 
F          F       0.95449   0.52352   0.33398 
F          F       0.14314   0.76430   0.00065 
F          F       0.23570   0.37885   0.00065 
F          F       0.62115   0.85686   0.00065 
F          F       0.19019   0.90237   0.33269 
F          F       0.09763   0.28782   0.33269 
F          F       0.71218   0.80981   0.33269 
F          F       0.85686   0.23570   0.49935 
F          F       0.76430   0.62115   0.49935 
F          F       0.37885   0.14314   0.49935 
F          F       0.52352   0.56904   0.16602 
F          F       0.43096   0.95449   0.16602 
F          F       0.04551   0.47648   0.16602 
F          F       0.75401   0.12632   0.13690 
F          F       0.87368   0.62769   0.13690 
F          F       0.37231   0.24599   0.13690 
F          F       0.42068   0.45965   0.30357 
F          F       0.54035   0.96102   0.30357 
F          F       0.03898   0.57932   0.30357 
F          F       0.08734   0.79299   0.47024 
F          F       0.20701   0.29436   0.47024 
F          F       0.70564   0.91266   0.47024 
F          F       0.24599   0.87368   0.36310 
F          F       0.12632   0.37231   0.36310 
F          F       0.62769   0.75401   0.36310 
F          F       0.91266   0.20701   0.02976 
F          F       0.79299   0.70564   0.02976 
F          F       0.29436   0.08734   0.02976 
F          F       0.57932   0.54035   0.19643 
F          F       0.45965   0.03898   0.19643 
F          F       0.96102   0.42068   0.19643 
H          H       0.91269   0.01164   0.23280 
H          H       0.98836   0.90105   0.23280 
H          H       0.09895   0.08731   0.23280 
H          H       0.57936   0.34497   0.39946 
H          H       0.65503   0.23438   0.39946 
H          H       0.76562   0.42064   0.39946 
H          H       0.24602   0.67831   0.06613 
H          H       0.32169   0.56772   0.06613 
H          H       0.43228   0.75398   0.06613 
H          H       0.08731   0.98836   0.26721 
H          H       0.01164   0.09895   0.26721 
H          H       0.90105   0.91269   0.26721 
H          H       0.75398   0.32169   0.43387 
H          H       0.67831   0.43228   0.43387 
H          H       0.56772   0.24602   0.43387 
H          H       0.42064   0.65503   0.10054 
H          H       0.34497   0.76562   0.10054 
H          H       0.23438   0.57936   0.10054 
H          H       0.99205   0.08190   0.06259 
H          H       0.91810   0.91015   0.06259 
H          H       0.08985   0.00795   0.06259 
H          H       0.65872   0.41523   0.22926 
H          H       0.58477   0.24348   0.22926 
H          H       0.75652   0.34128   0.22926 
H          H       0.32538   0.74857   0.39592 
H          H       0.25143   0.57682   0.39592 
H          H       0.42318   0.67462   0.39592 
H          H       0.00795   0.91810   0.43741 
H          H       0.08190   0.08985   0.43741 
H          H       0.91015   0.99205   0.43741 
H          H       0.67462   0.25143   0.10408 
H          H       0.74857   0.42318   0.10408 
H          H       0.57682   0.32538   0.10408 
H          H       0.34128   0.58477   0.27074 
H          H       0.41523   0.75652   0.27074 
H          H       0.24348   0.65872   0.27074 
H          H       0.84450   0.06047   0.21623 
H          H       0.93953   0.78403   0.21623 
H          H       0.21597   0.15550   0.21623 
H          H       0.51117   0.39380   0.38290 
H          H       0.60620   0.11736   0.38290 
H          H       0.88264   0.48883   0.38290 
H          H       0.17783   0.72714   0.04956 
H          H       0.27286   0.45070   0.04956 
H          H       0.54930   0.82217   0.04956 
H          H       0.15550   0.93953   0.28377 
H          H       0.06047   0.21597   0.28377 
H          H       0.78403   0.84450   0.28377 
H          H       0.82217   0.27286   0.45044 
H          H       0.72714   0.54930   0.45044 
H          H       0.45070   0.17783   0.45044 
H          H       0.48883   0.60620   0.11710 
H          H       0.39380   0.88264   0.11710 
H          H       0.11736   0.51117   0.11710 
H          H       0.90043   0.08838   0.30997 
H          H       0.91162   0.81205   0.30997 
H          H       0.18795   0.09957   0.30997 
H          H       0.56710   0.42171   0.47664 
H          H       0.57829   0.14538   0.47664 
H          H       0.85462   0.43290   0.47664 
H          H       0.23376   0.75505   0.14330 
H          H       0.24495   0.47872   0.14330 
H          H       0.52128   0.76624   0.14330 
H          H       0.09957   0.91162   0.19003 
H          H       0.08838   0.18795   0.19003 
H          H       0.81205   0.90043   0.19003 
H          H       0.76624   0.24495   0.35670 
H          H       0.75505   0.52128   0.35670 
H          H       0.47872   0.23376   0.35670 
H          H       0.43290   0.57829   0.02336 
H          H       0.42171   0.85462   0.02336 
H          H       0.14538   0.56710   0.02336 
H          H       0.88939   0.03678   0.32949 
H          H       0.96322   0.85261   0.32949 
H          H       0.14739   0.11061   0.32949 
H          H       0.55606   0.37011   0.49616 
H          H       0.62989   0.18594   0.49616 
H          H       0.81406   0.44394   0.49616 
H          H       0.22272   0.70345   0.16283 
H          H       0.29655   0.51928   0.16283 
H          H       0.48072   0.77728   0.16283 
H          H       0.11061   0.96322   0.17051 
H          H       0.03678   0.14739   0.17051 
H          H       0.85261   0.88939   0.17051 
H          H       0.77728   0.29655   0.33717 
H          H       0.70345   0.48072   0.33717 
H          H       0.51928   0.22272   0.33717 
H          H       0.44394   0.62989   0.00384 
H          H       0.37011   0.81406   0.00384 
H          H       0.18594   0.55606   0.00384 
H          H       0.85066   0.05137   0.34374 
H          H       0.94863   0.79929   0.34374 
H          H       0.20071   0.14934   0.34374 
H          H       0.51733   0.38470   0.01041 
H          H       0.61530   0.13262   0.01041 
H          H       0.86738   0.48267   0.01041 
H          H       0.18399   0.71804   0.17707 
H          H       0.28196   0.46596   0.17707 
H          H       0.53404   0.81601   0.17707 
H          H       0.14934   0.94863   0.15626 
H          H       0.05137   0.20071   0.15626 
H          H       0.79929   0.85066   0.15626 
H          H       0.81601   0.28196   0.32293 
H          H       0.71804   0.53404   0.32293 
H          H       0.46596   0.18399   0.32293 
H          H       0.48267   0.61530   0.48959 
H          H       0.38470   0.86738   0.48959 
H          H       0.13262   0.51733   0.48959 
H          H       0.81438   0.98825   0.17600 
H          H       0.01175   0.82613   0.17600 
H          H       0.17387   0.18562   0.17600 
H          H       0.48105   0.32158   0.34266 
H          H       0.67842   0.15946   0.34266 
H          H       0.84054   0.51895   0.34266 
H          H       0.14771   0.65492   0.00933 
H          H       0.34508   0.49280   0.00933 
H          H       0.50720   0.85229   0.00933 
H          H       0.18562   0.01175   0.32400 
H          H       0.98825   0.17387   0.32400 
H          H       0.82613   0.81438   0.32400 
H          H       0.85229   0.34508   0.49067 
H          H       0.65492   0.50720   0.49067 
H          H       0.49280   0.14771   0.49067 
H          H       0.51895   0.67842   0.15734 
H          H       0.32158   0.84054   0.15734 
H          H       0.15946   0.48105   0.15734 
H          H       0.80224   0.99042   0.26714 
H          H       0.00958   0.81182   0.26714 
H          H       0.18818   0.19776   0.26714 
H          H       0.46891   0.32375   0.43381 
H          H       0.67625   0.14515   0.43381 
H          H       0.85485   0.53109   0.43381 
H          H       0.13557   0.65709   0.10047 
H          H       0.34291   0.47849   0.10047 
H          H       0.52151   0.86443   0.10047 
H          H       0.19776   0.00958   0.23286 
H          H       0.99042   0.18818   0.23286 
H          H       0.81182   0.80224   0.23286 
H          H       0.86443   0.34291   0.39953 
H          H       0.65709   0.52151   0.39953 
H          H       0.47849   0.13557   0.39953 
H          H       0.53109   0.67625   0.06619 
H          H       0.32375   0.85485   0.06619 
H          H       0.14515   0.46891   0.06619 
H          H       0.84097   0.97707   0.24541 
H          H       0.02293   0.86390   0.24541 
H          H       0.13610   0.15903   0.24541 
H          H       0.50764   0.31040   0.41208 
H          H       0.68960   0.19723   0.41208 
H          H       0.80277   0.49236   0.41208 
H          H       0.17430   0.64374   0.07874 
H          H       0.35626   0.53057   0.07874 
H          H       0.46943   0.82570   0.07874 
H          H       0.15903   0.02293   0.25459 
H          H       0.97707   0.13610   0.25459 
H          H       0.86390   0.84097   0.25459 
H          H       0.82570   0.35626   0.42126 
H          H       0.64374   0.46943   0.42126 
H          H       0.53057   0.17430   0.42126 
H          H       0.49236   0.68960   0.08792 
H          H       0.31040   0.80277   0.08792 
H          H       0.19723   0.50764   0.08792 
H          H       0.92591   0.12684   0.00507 
H          H       0.87316   0.79907   0.00507 
H          H       0.20093   0.07409   0.00507 
H          H       0.59258   0.46017   0.17174 
H          H       0.53983   0.13240   0.17174 
H          H       0.86760   0.40742   0.17174 
H          H       0.25924   0.79351   0.33841 
H          H       0.20649   0.46574   0.33841 
H          H       0.53426   0.74076   0.33841 
H          H       0.07409   0.87316   0.49493 
H          H       0.12684   0.20093   0.49493 
H          H       0.79907   0.92591   0.49493 
H          H       0.74076   0.20649   0.16159 
H          H       0.79351   0.53426   0.16159 
H          H       0.46574   0.25924   0.16159 
H          H       0.40742   0.53983   0.32826 
H          H       0.46017   0.86760   0.32826 
H          H       0.13240   0.59258   0.32826 
H          H       0.98925   0.17717   0.07633 
H          H       0.82283   0.81208   0.07633 
H          H       0.18792   0.01075   0.07633 
H          H       0.65592   0.51050   0.24299 
H          H       0.48950   0.14541   0.24299 
H          H       0.85459   0.34408   0.24299 
H          H       0.32258   0.84384   0.40966 
H          H       0.15616   0.47875   0.40966 
H          H       0.52125   0.67742   0.40966 
H          H       0.01075   0.82283   0.42368 
H          H       0.17717   0.18792   0.42368 
H          H       0.81208   0.98925   0.42368 
H          H       0.67742   0.15616   0.09034 
H          H       0.84384   0.52125   0.09034 
H          H       0.47875   0.32258   0.09034 
H          H       0.34408   0.48950   0.25701 
H          H       0.51050   0.85459   0.25701 
H          H       0.14541   0.65592   0.25701 
H          H       0.99651   0.18290   0.48202 
H          H       0.81710   0.81361   0.48202 
H          H       0.18639   0.00349   0.48202 
H          H       0.66318   0.51623   0.14869 
H          H       0.48377   0.14694   0.14869 
H          H       0.85306   0.33682   0.14869 
H          H       0.32984   0.84957   0.31536 
H          H       0.15043   0.48028   0.31536 
H          H       0.51972   0.67016   0.31536 
H          H       0.00349   0.81710   0.01798 
H          H       0.18290   0.18639   0.01798 
H          H       0.81361   0.99651   0.01798 
H          H       0.67016   0.15043   0.18464 
H          H       0.84957   0.51972   0.18464 
H          H       0.48028   0.32984   0.18464 
H          H       0.33682   0.48377   0.35131 
H          H       0.51623   0.85306   0.35131 
H          H       0.14694   0.66318   0.35131 
H          H       0.01841   0.15750   0.03182 
H          H       0.84250   0.86091   0.03182 
H          H       0.13909   0.98159   0.03182 
H          H       0.68508   0.49083   0.19849 
H          H       0.50917   0.19424   0.19849 
H          H       0.80576   0.31492   0.19849 
H          H       0.35174   0.82417   0.36516 
H          H       0.17583   0.52758   0.36516 
H          H       0.47242   0.64826   0.36516 
H          H       0.98159   0.84250   0.46818 
H          H       0.15750   0.13909   0.46818 
H          H       0.86091   0.01841   0.46818 
H          H       0.64826   0.17583   0.13484 
H          H       0.82417   0.47242   0.13484 
H          H       0.52758   0.35174   0.13484 
H          H       0.31492   0.50917   0.30151 
H          H       0.49083   0.80576   0.30151 
H          H       0.19424   0.68508   0.30151 
H          H       0.98481   0.09836   0.44817 
H          H       0.90164   0.88645   0.44817 
H          H       0.11355   0.01519   0.44817 
H          H       0.65148   0.43169   0.11484 
H          H       0.56831   0.21978   0.11484 
H          H       0.78022   0.34852   0.11484 
H          H       0.31814   0.76503   0.28151 
H          H       0.23497   0.55312   0.28151 
H          H       0.44688   0.68186   0.28151 
H          H       0.01519   0.90164   0.05183 
H          H       0.09836   0.11355   0.05183 
H          H       0.88645   0.98481   0.05183 
H          H       0.68186   0.23497   0.21849 
H          H       0.76503   0.44688   0.21849 
H          H       0.55312   0.31814   0.21849 
H          H       0.34852   0.56831   0.38516 
H          H       0.43169   0.78022   0.38516 
H          H       0.21978   0.65148   0.38516 
H          H       0.95644   0.11718   0.40074 
H          H       0.88282   0.83926   0.40074 
H          H       0.16074   0.04356   0.40074 
H          H       0.62311   0.45051   0.06740 
H          H       0.54949   0.17259   0.06740 
H          H       0.82741   0.37689   0.06740 
H          H       0.28977   0.78385   0.23407 
H          H       0.21615   0.50593   0.23407 
H          H       0.49407   0.71023   0.23407 
H          H       0.04356   0.88282   0.09927 
H          H       0.11718   0.16074   0.09927 
H          H       0.83926   0.95644   0.09927 
H          H       0.71023   0.21615   0.26593 
H          H       0.78385   0.49407   0.26593 
H          H       0.50593   0.28977   0.26593 
H          H       0.37689   0.54949   0.43260 
H          H       0.45051   0.82741   0.43260 
H          H       0.17259   0.62311   0.43260 
H          H       0.92989   0.06801   0.44312 
H          H       0.93199   0.86188   0.44312 
H          H       0.13812   0.07011   0.44312 
H          H       0.59656   0.40134   0.10979 
H          H       0.59866   0.19521   0.10979 
H          H       0.80479   0.40344   0.10979 
H          H       0.26322   0.73468   0.27645 
H          H       0.26532   0.52855   0.27645 
H          H       0.47145   0.73678   0.27645 
H          H       0.07011   0.93199   0.05688 
H          H       0.06801   0.13812   0.05688 
H          H       0.86188   0.92989   0.05688 
H          H       0.73678   0.26532   0.22355 
H          H       0.73468   0.47145   0.22355 
H          H       0.52855   0.26322   0.22355 
H          H       0.40344   0.59866   0.39021 
H          H       0.40134   0.80479   0.39021 
H          H       0.19521   0.59656   0.39021 
H          H       0.92351   0.16148   0.11675 
H          H       0.83852   0.76203   0.11675 
H          H       0.23797   0.07649   0.11675 
H          H       0.59018   0.49481   0.28342 
H          H       0.50519   0.09536   0.28342 
H          H       0.90464   0.40982   0.28342 
H          H       0.25684   0.82815   0.45008 
H          H       0.17185   0.42870   0.45008 
H          H       0.57130   0.74316   0.45008 
H          H       0.07649   0.83852   0.38325 
H          H       0.16148   0.23797   0.38325 
H          H       0.76203   0.92351   0.38325 
H          H       0.74316   0.17185   0.04992 
H          H       0.82815   0.57130   0.04992 
H          H       0.42870   0.25684   0.04992 
H          H       0.40982   0.50519   0.21658 
H          H       0.49481   0.90464   0.21658 
H          H       0.09536   0.59018   0.21658 
C          C       0.97801   0.02164   0.65555 
C          C       0.97836   0.95637   0.65555 
C          C       0.04363   0.02199   0.65555 
C          C       0.64468   0.35497   0.82222 
C          C       0.64503   0.28970   0.82222 
C          C       0.71030   0.35532   0.82222 
C          C       0.31134   0.68831   0.98889 
C          C       0.31169   0.62304   0.98889 
C          C       0.37696   0.68866   0.98889 
C          C       0.02199   0.97836   0.84445 
C          C       0.02164   0.04363   0.84445 
C          C       0.95637   0.97801   0.84445 
C          C       0.68866   0.31169   0.51111 
C          C       0.68831   0.37696   0.51111 
C          C       0.62304   0.31134   0.51111 
C          C       0.35532   0.64503   0.67778 
C          C       0.35497   0.71030   0.67778 
C          C       0.28970   0.64468   0.67778 
C          C       0.95687   0.97825   0.65616 
C          C       0.02175   0.97862   0.65616 
C          C       0.02138   0.04313   0.65616 
C          C       0.62354   0.31158   0.82283 
C          C       0.68842   0.31195   0.82283 
C          C       0.68805   0.37646   0.82283 
C          C       0.29020   0.64492   0.98950 
C          C       0.35508   0.64529   0.98950 
C          C       0.35471   0.70980   0.98950 
C          C       0.04313   0.02175   0.84384 
C          C       0.97825   0.02138   0.84384 
C          C       0.97862   0.95687   0.84384 
C          C       0.70980   0.35508   0.51050 
C          C       0.64492   0.35471   0.51050 
C          C       0.64529   0.29020   0.51050 
C          C       0.37646   0.68842   0.67717 
C          C       0.31158   0.68805   0.67717 
C          C       0.31195   0.62354   0.67717 
F          F       0.91497   0.95702   0.65589 
F          F       0.04298   0.95795   0.65589 
F          F       0.04205   0.08503   0.65589 
F          F       0.58164   0.29035   0.82255 
F          F       0.70965   0.29128   0.82255 
F          F       0.70872   0.41836   0.82255 
F          F       0.24830   0.62369   0.98922 
F          F       0.37631   0.62462   0.98922 
F          F       0.37538   0.75170   0.98922 
F          F       0.08503   0.04298   0.84411 
F          F       0.95702   0.04205   0.84411 
F          F       0.95795   0.91497   0.84411 
F          F       0.75170   0.37631   0.51078 
F          F       0.62369   0.37538   0.51078 
F          F       0.62462   0.24830   0.51078 
F          F       0.41836   0.70965   0.67745 
F          F       0.29035   0.70872   0.67745 
F          F       0.29128   0.58164   0.67745 
C          C       0.95475   0.04429   0.64840 
C          C       0.95571   0.91046   0.64840 
C          C       0.08954   0.04525   0.64840 
C          C       0.62142   0.37762   0.81507 
C          C       0.62238   0.24379   0.81507 
C          C       0.75621   0.37858   0.81507 
C          C       0.28808   0.71096   0.98173 
C          C       0.28904   0.57713   0.98173 
C          C       0.42287   0.71192   0.98173 
C          C       0.04525   0.95571   0.85160 
C          C       0.04429   0.08954   0.85160 
C          C       0.91046   0.95475   0.85160 
C          C       0.71192   0.28904   0.51827 
C          C       0.71096   0.42287   0.51827 
C          C       0.57713   0.28808   0.51827 
C          C       0.37858   0.62238   0.68493 
C          C       0.37762   0.75621   0.68493 
C          C       0.24379   0.62142   0.68493 
C          C       0.92044   0.03431   0.69117 
C          C       0.96569   0.88613   0.69117 
C          C       0.11387   0.07956   0.69117 
C          C       0.58711   0.36764   0.85784 
C          C       0.63236   0.21946   0.85784 
C          C       0.78054   0.41289   0.85784 
C          C       0.25377   0.70098   0.52450 
C          C       0.29902   0.55280   0.52450 
C          C       0.44720   0.74623   0.52450 
C          C       0.07956   0.96569   0.80883 
C          C       0.03431   0.11387   0.80883 
C          C       0.88613   0.92044   0.80883 
C          C       0.74623   0.29902   0.97550 
C          C       0.70098   0.44720   0.97550 
C          C       0.55280   0.25377   0.97550 
C          C       0.41289   0.63236   0.64216 
C          C       0.36764   0.78054   0.64216 
C          C       0.21946   0.58711   0.64216 
C          C       0.89632   0.05320   0.68124 
C          C       0.94680   0.84312   0.68124 
C          C       0.15688   0.10368   0.68124 
C          C       0.56299   0.38653   0.84791 
C          C       0.61347   0.17645   0.84791 
C          C       0.82355   0.43701   0.84791 
C          C       0.22965   0.71987   0.51457 
C          C       0.28013   0.50979   0.51457 
C          C       0.49021   0.77035   0.51457 
C          C       0.10368   0.94680   0.81876 
C          C       0.05320   0.15688   0.81876 
C          C       0.84312   0.89632   0.81876 
C          C       0.77035   0.28013   0.98543 
C          C       0.71987   0.49021   0.98543 
C          C       0.50979   0.22965   0.98543 
C          C       0.43701   0.61347   0.65209 
C          C       0.38653   0.82355   0.65209 
C          C       0.17645   0.56299   0.65209 
C          C       0.90653   0.08251   0.62579 
C          C       0.91749   0.82402   0.62579 
C          C       0.17598   0.09347   0.62579 
C          C       0.57320   0.41584   0.79246 
C          C       0.58416   0.15735   0.79246 
C          C       0.84265   0.42680   0.79246 
C          C       0.23986   0.74918   0.95912 
C          C       0.25082   0.49069   0.95912 
C          C       0.50931   0.76014   0.95912 
C          C       0.09347   0.91749   0.87421 
C          C       0.08251   0.17598   0.87421 
C          C       0.82402   0.90653   0.87421 
C          C       0.76014   0.25082   0.54088 
C          C       0.74918   0.50931   0.54088 
C          C       0.49069   0.23986   0.54088 
C          C       0.42680   0.58416   0.70754 
C          C       0.41584   0.84265   0.70754 
C          C       0.15735   0.57320   0.70754 
C          C       0.94118   0.09257   0.58130 
C          C       0.90743   0.84861   0.58130 
C          C       0.15139   0.05882   0.58130 
C          C       0.60785   0.42590   0.74796 
C          C       0.57410   0.18194   0.74796 
C          C       0.81806   0.39215   0.74796 
C          C       0.27451   0.75924   0.91463 
C          C       0.24076   0.51528   0.91463 
C          C       0.48472   0.72549   0.91463 
C          C       0.05882   0.90743   0.91871 
C          C       0.09257   0.15139   0.91871 
C          C       0.84861   0.94118   0.91871 
C          C       0.72549   0.24076   0.58537 
C          C       0.75924   0.48472   0.58537 
C          C       0.51528   0.27451   0.58537 
C          C       0.39215   0.57410   0.75204 
C          C       0.42590   0.81806   0.75204 
C          C       0.18194   0.60785   0.75204 
C          C       0.96545   0.07423   0.59537 
C          C       0.92577   0.89122   0.59537 
C          C       0.10878   0.03455   0.59537 
C          C       0.63212   0.40756   0.76204 
C          C       0.59244   0.22455   0.76204 
C          C       0.77545   0.36788   0.76204 
C          C       0.29878   0.74090   0.92871 
C          C       0.25910   0.55789   0.92871 
C          C       0.44211   0.70122   0.92871 
C          C       0.03455   0.92577   0.90462 
C          C       0.07423   0.10878   0.90462 
C          C       0.89122   0.96545   0.90462 
C          C       0.70122   0.25910   0.57129 
C          C       0.74090   0.44211   0.57129 
C          C       0.55789   0.29878   0.57129 
C          C       0.36788   0.59244   0.73796 
C          C       0.40756   0.77545   0.73796 
C          C       0.22455   0.63212   0.73796 
C          C       0.86045   0.04289   0.73192 
C          C       0.95711   0.81756   0.73192 
C          C       0.18244   0.13955   0.73192 
C          C       0.52712   0.37622   0.89859 
C          C       0.62378   0.15089   0.89859 
C          C       0.84911   0.47288   0.89859 
C          C       0.19378   0.70956   0.56525 
C          C       0.29044   0.48423   0.56525 
C          C       0.51577   0.80622   0.56525 
C          C       0.13955   0.95711   0.76808 
C          C       0.04289   0.18244   0.76808 
C          C       0.81756   0.86045   0.76808 
C          C       0.80622   0.29044   0.93475 
C          C       0.70956   0.51577   0.93475 
C          C       0.48423   0.19378   0.93475 
C          C       0.47288   0.62378   0.60141 
C          C       0.37622   0.84911   0.60141 
C          C       0.15089   0.52712   0.60141 
C          C       0.87612   0.05537   0.80824 
C          C       0.94463   0.82075   0.80824 
C          C       0.17925   0.12388   0.80824 
C          C       0.54279   0.38870   0.97491 
C          C       0.61130   0.15408   0.97491 
C          C       0.84592   0.45721   0.97491 
C          C       0.20945   0.72204   0.64158 
C          C       0.27796   0.48742   0.64158 
C          C       0.51258   0.79055   0.64158 
C          C       0.12388   0.94463   0.69176 
C          C       0.05537   0.17925   0.69176 
C          C       0.82075   0.87612   0.69176 
C          C       0.79055   0.27796   0.85842 
C          C       0.72204   0.51258   0.85842 
C          C       0.48742   0.20945   0.85842 
C          C       0.45721   0.61130   0.52509 
C          C       0.38870   0.84592   0.52509 
C          C       0.15408   0.54279   0.52509 
C          C       0.82795   0.99690   0.73011 
C          C       0.00310   0.83105   0.73011 
C          C       0.16895   0.17205   0.73011 
C          C       0.49462   0.33023   0.89678 
C          C       0.66977   0.16438   0.89678 
C          C       0.83562   0.50538   0.89678 
C          C       0.16128   0.66357   0.56345 
C          C       0.33643   0.49772   0.56345 
C          C       0.50228   0.83872   0.56345 
C          C       0.17205   0.00310   0.76989 
C          C       0.99690   0.16895   0.76989 
C          C       0.83105   0.82795   0.76989 
C          C       0.83872   0.33643   0.93655 
C          C       0.66357   0.50228   0.93655 
C          C       0.49772   0.16128   0.93655 
C          C       0.50538   0.66977   0.60322 
C          C       0.33023   0.83562   0.60322 
C          C       0.16438   0.49462   0.60322 
C          C       0.95148   0.12045   0.51610 
C          C       0.87955   0.83103   0.51610 
C          C       0.16897   0.04852   0.51610 
C          C       0.61815   0.45378   0.68277 
C          C       0.54622   0.16436   0.68277 
C          C       0.83564   0.38185   0.68277 
C          C       0.28481   0.78712   0.84944 
C          C       0.21288   0.49770   0.84944 
C          C       0.50230   0.71519   0.84944 
C          C       0.04852   0.87955   0.98390 
C          C       0.12045   0.16897   0.98390 
C          C       0.83103   0.95148   0.98390 
C          C       0.71519   0.21288   0.65056 
C          C       0.78712   0.50230   0.65056 
C          C       0.49770   0.28481   0.65056 
C          C       0.38185   0.54622   0.81723 
C          C       0.45378   0.83564   0.81723 
C          C       0.16436   0.61815   0.81723 
C          C       0.99122   0.16168   0.52740 
C          C       0.83832   0.82954   0.52740 
C          C       0.17046   0.00878   0.52740 
C          C       0.65789   0.49501   0.69406 
C          C       0.50499   0.16287   0.69406 
C          C       0.83713   0.34211   0.69406 
C          C       0.32455   0.82835   0.86073 
C          C       0.17165   0.49621   0.86073 
C          C       0.50379   0.67545   0.86073 
C          C       0.00878   0.83832   0.97260 
C          C       0.16168   0.17046   0.97260 
C          C       0.82954   0.99122   0.97260 
C          C       0.67545   0.17165   0.63927 
C          C       0.82835   0.50379   0.63927 
C          C       0.49621   0.32455   0.63927 
C          C       0.34211   0.50499   0.80594 
C          C       0.49501   0.83713   0.80594 
C          C       0.16287   0.65789   0.80594 
C          C       0.95598   0.09991   0.94881 
C          C       0.90009   0.85607   0.94881 
C          C       0.14393   0.04402   0.94881 
C          C       0.62265   0.43324   0.61548 
C          C       0.56676   0.18940   0.61548 
C          C       0.81060   0.37735   0.61548 
C          C       0.28931   0.76658   0.78215 
C          C       0.23342   0.52274   0.78215 
C          C       0.47726   0.71069   0.78215 
C          C       0.04402   0.90009   0.55118 
C          C       0.09991   0.14393   0.55118 
C          C       0.85607   0.95598   0.55118 
C          C       0.71069   0.23342   0.71785 
C          C       0.76658   0.47726   0.71785 
C          C       0.52274   0.28931   0.71785 
C          C       0.37735   0.56676   0.88452 
C          C       0.43324   0.81060   0.88452 
C          C       0.18940   0.62265   0.88452 
N          N       0.87974   0.09934   0.61372 
N          N       0.90066   0.78040   0.61372 
N          N       0.21960   0.12026   0.61372 
N          N       0.54641   0.43267   0.78039 
N          N       0.56733   0.11373   0.78039 
N          N       0.88627   0.45359   0.78039 
N          N       0.21307   0.76601   0.94705 
N          N       0.23399   0.44707   0.94705 
N          N       0.55293   0.78693   0.94705 
N          N       0.12026   0.90066   0.88628 
N          N       0.09934   0.21960   0.88628 
N          N       0.78040   0.87974   0.88628 
N          N       0.78693   0.23399   0.55295 
N          N       0.76601   0.55293   0.55295 
N          N       0.44707   0.21307   0.55295 
N          N       0.45359   0.56733   0.71961 
N          N       0.43267   0.88627   0.71961 
N          N       0.11373   0.54641   0.71961 
C          C       0.89124   0.13834   0.61138 
C          C       0.86166   0.75290   0.61138 
C          C       0.24710   0.10876   0.61138 
C          C       0.55791   0.47167   0.77804 
C          C       0.52833   0.08623   0.77804 
C          C       0.91377   0.44209   0.77804 
C          C       0.22457   0.80501   0.94471 
C          C       0.19499   0.41957   0.94471 
C          C       0.58043   0.77543   0.94471 
C          C       0.10876   0.86166   0.88862 
C          C       0.13834   0.24710   0.88862 
C          C       0.75290   0.89124   0.88862 
C          C       0.77543   0.19499   0.55529 
C          C       0.80501   0.58043   0.55529 
C          C       0.41957   0.22457   0.55529 
C          C       0.44209   0.52833   0.72196 
C          C       0.47167   0.91377   0.72196 
C          C       0.08623   0.55791   0.72196 
C          C       0.86112   0.15218   0.59715 
C          C       0.84782   0.70894   0.59715 
C          C       0.29106   0.13888   0.59715 
C          C       0.52779   0.48551   0.76382 
C          C       0.51449   0.04227   0.76382 
C          C       0.95773   0.47221   0.76382 
C          C       0.19445   0.81885   0.93049 
C          C       0.18115   0.37561   0.93049 
C          C       0.62439   0.80555   0.93049 
C          C       0.13888   0.84782   0.90285 
C          C       0.15218   0.29106   0.90285 
C          C       0.70894   0.86112   0.90285 
C          C       0.80555   0.18115   0.56951 
C          C       0.81885   0.62439   0.56951 
C          C       0.37561   0.19445   0.56951 
C          C       0.47221   0.51449   0.73618 
C          C       0.48551   0.95773   0.73618 
C          C       0.04227   0.52779   0.73618 
C          C       0.87357   0.18782   0.55651 
C          C       0.81218   0.68575   0.55651 
C          C       0.31425   0.12643   0.55651 
C          C       0.54024   0.52115   0.72317 
C          C       0.47885   0.01908   0.72317 
C          C       0.98092   0.45976   0.72317 
C          C       0.20690   0.85449   0.88984 
C          C       0.14551   0.35242   0.88984 
C          C       0.64758   0.79310   0.88984 
C          C       0.12643   0.81218   0.94349 
C          C       0.18782   0.31425   0.94349 
C          C       0.68575   0.87357   0.94349 
C          C       0.79310   0.14551   0.61016 
C          C       0.85449   0.64758   0.61016 
C          C       0.35242   0.20690   0.61016 
C          C       0.45976   0.47885   0.77683 
C          C       0.52115   0.98092   0.77683 
C          C       0.01908   0.54024   0.77683 
C          C       0.84580   0.20237   0.54221 
C          C       0.79763   0.64343   0.54221 
C          C       0.35657   0.15420   0.54221 
C          C       0.51247   0.53570   0.70888 
C          C       0.46430   0.97676   0.70888 
C          C       0.02324   0.48753   0.70888 
C          C       0.17913   0.86904   0.87554 
C          C       0.13096   0.31010   0.87554 
C          C       0.68990   0.82087   0.87554 
C          C       0.15420   0.79763   0.95779 
C          C       0.20237   0.35657   0.95779 
C          C       0.64343   0.84580   0.95779 
C          C       0.82087   0.13096   0.62446 
C          C       0.86904   0.68990   0.62446 
C          C       0.31010   0.17913   0.62446 
C          C       0.48753   0.46430   0.79112 
C          C       0.53570   0.02324   0.79112 
C          C       0.97676   0.51247   0.79112 
F          F       0.80981   0.09763   0.66731 
F          F       0.90237   0.71218   0.66731 
F          F       0.28782   0.19019   0.66731 
F          F       0.47648   0.43096   0.83398 
F          F       0.56904   0.04551   0.83398 
F          F       0.95449   0.52352   0.83398 
F          F       0.14314   0.76430   0.50065 
F          F       0.23570   0.37885   0.50065 
F          F       0.62115   0.85686   0.50065 
F          F       0.19019   0.90237   0.83269 
F          F       0.09763   0.28782   0.83269 
F          F       0.71218   0.80981   0.83269 
F          F       0.85686   0.23570   0.99935 
F          F       0.76430   0.62115   0.99935 
F          F       0.37885   0.14314   0.99935 
F          F       0.52352   0.56904   0.66602 
F          F       0.43096   0.95449   0.66602 
F          F       0.04551   0.47648   0.66602 
F          F       0.75401   0.12632   0.63691 
F          F       0.87368   0.62769   0.63691 
F          F       0.37231   0.24599   0.63691 
F          F       0.42068   0.45965   0.80357 
F          F       0.54035   0.96102   0.80357 
F          F       0.03898   0.57932   0.80357 
F          F       0.08734   0.79299   0.97024 
F          F       0.20701   0.29436   0.97024 
F          F       0.70564   0.91266   0.97024 
F          F       0.24599   0.87368   0.86309 
F          F       0.12632   0.37231   0.86309 
F          F       0.62769   0.75401   0.86309 
F          F       0.91266   0.20701   0.52976 
F          F       0.79299   0.70564   0.52976 
F          F       0.29436   0.08734   0.52976 
F          F       0.57932   0.54035   0.69643 
F          F       0.45965   0.03898   0.69643 
F          F       0.96102   0.42068   0.69643 
H          H       0.91269   0.01164   0.73279 
H          H       0.98836   0.90105   0.73279 
H          H       0.09895   0.08731   0.73279 
H          H       0.57936   0.34497   0.89946 
H          H       0.65503   0.23438   0.89946 
H          H       0.76562   0.42064   0.89946 
H          H       0.24602   0.67831   0.56613 
H          H       0.32169   0.56772   0.56613 
H          H       0.43228   0.75398   0.56613 
H          H       0.08731   0.98836   0.76721 
H          H       0.01164   0.09895   0.76721 
H          H       0.90105   0.91269   0.76721 
H          H       0.75398   0.32169   0.93387 
H          H       0.67831   0.43228   0.93387 
H          H       0.56772   0.24602   0.93387 
H          H       0.42064   0.65503   0.60054 
H          H       0.34497   0.76562   0.60054 
H          H       0.23438   0.57936   0.60054 
H          H       0.99205   0.08190   0.56259 
H          H       0.91810   0.91015   0.56259 
H          H       0.08985   0.00795   0.56259 
H          H       0.65872   0.41523   0.72926 
H          H       0.58477   0.24348   0.72926 
H          H       0.75652   0.34128   0.72926 
H          H       0.32538   0.74857   0.89592 
H          H       0.25143   0.57682   0.89592 
H          H       0.42318   0.67462   0.89592 
H          H       0.00795   0.91810   0.93741 
H          H       0.08190   0.08985   0.93741 
H          H       0.91015   0.99205   0.93741 
H          H       0.67462   0.25143   0.60408 
H          H       0.74857   0.42318   0.60408 
H          H       0.57682   0.32538   0.60408 
H          H       0.34128   0.58477   0.77074 
H          H       0.41523   0.75652   0.77074 
H          H       0.24348   0.65872   0.77074 
H          H       0.84450   0.06047   0.71623 
H          H       0.93953   0.78403   0.71623 
H          H       0.21597   0.15550   0.71623 
H          H       0.51117   0.39380   0.88290 
H          H       0.60620   0.11736   0.88290 
H          H       0.88264   0.48883   0.88290 
H          H       0.17783   0.72714   0.54956 
H          H       0.27286   0.45070   0.54956 
H          H       0.54930   0.82217   0.54956 
H          H       0.15550   0.93953   0.78377 
H          H       0.06047   0.21597   0.78377 
H          H       0.78403   0.84450   0.78377 
H          H       0.82217   0.27286   0.95044 
H          H       0.72714   0.54930   0.95044 
H          H       0.45070   0.17783   0.95044 
H          H       0.48883   0.60620   0.61710 
H          H       0.39380   0.88264   0.61710 
H          H       0.11736   0.51117   0.61710 
H          H       0.90043   0.08838   0.80997 
H          H       0.91162   0.81205   0.80997 
H          H       0.18795   0.09957   0.80997 
H          H       0.56710   0.42171   0.97664 
H          H       0.57829   0.14538   0.97664 
H          H       0.85462   0.43290   0.97664 
H          H       0.23376   0.75505   0.64330 
H          H       0.24495   0.47872   0.64330 
H          H       0.52128   0.76624   0.64330 
H          H       0.09957   0.91162   0.69003 
H          H       0.08838   0.18795   0.69003 
H          H       0.81205   0.90043   0.69003 
H          H       0.76624   0.24495   0.85670 
H          H       0.75505   0.52128   0.85670 
H          H       0.47872   0.23376   0.85670 
H          H       0.43290   0.57829   0.52336 
H          H       0.42171   0.85462   0.52336 
H          H       0.14538   0.56710   0.52336 
H          H       0.88939   0.03678   0.82949 
H          H       0.96322   0.85261   0.82949 
H          H       0.14739   0.11061   0.82949 
H          H       0.55606   0.37011   0.99616 
H          H       0.62989   0.18594   0.99616 
H          H       0.81406   0.44394   0.99616 
H          H       0.22272   0.70345   0.66283 
H          H       0.29655   0.51928   0.66283 
H          H       0.48072   0.77728   0.66283 
H          H       0.11061   0.96322   0.67051 
H          H       0.03678   0.14739   0.67051 
H          H       0.85261   0.88939   0.67051 
H          H       0.77728   0.29655   0.83717 
H          H       0.70345   0.48072   0.83717 
H          H       0.51928   0.22272   0.83717 
H          H       0.44394   0.62989   0.50384 
H          H       0.37011   0.81406   0.50384 
H          H       0.18594   0.55606   0.50384 
H          H       0.85066   0.05137   0.84374 
H          H       0.94863   0.79929   0.84374 
H          H       0.20071   0.14934   0.84374 
H          H       0.51733   0.38470   0.51041 
H          H       0.61530   0.13262   0.51041 
H          H       0.86738   0.48267   0.51041 
H          H       0.18399   0.71804   0.67707 
H          H       0.28196   0.46596   0.67707 
H          H       0.53404   0.81601   0.67707 
H          H       0.14934   0.94863   0.65626 
H          H       0.05137   0.20071   0.65626 
H          H       0.79929   0.85066   0.65626 
H          H       0.81601   0.28196   0.82293 
H          H       0.71804   0.53404   0.82293 
H          H       0.46596   0.18399   0.82293 
H          H       0.48267   0.61530   0.98959 
H          H       0.38470   0.86738   0.98959 
H          H       0.13262   0.51733   0.98959 
H          H       0.81438   0.98825   0.67600 
H          H       0.01175   0.82613   0.67600 
H          H       0.17387   0.18562   0.67600 
H          H       0.48105   0.32158   0.84266 
H          H       0.67842   0.15946   0.84266 
H          H       0.84054   0.51895   0.84266 
H          H       0.14771   0.65492   0.50933 
H          H       0.34508   0.49280   0.50933 
H          H       0.50720   0.85229   0.50933 
H          H       0.18562   0.01175   0.82400 
H          H       0.98825   0.17387   0.82400 
H          H       0.82613   0.81438   0.82400 
H          H       0.85229   0.34508   0.99067 
H          H       0.65492   0.50720   0.99067 
H          H       0.49280   0.14771   0.99067 
H          H       0.51895   0.67842   0.65734 
H          H       0.32158   0.84054   0.65734 
H          H       0.15946   0.48105   0.65734 
H          H       0.80224   0.99042   0.76714 
H          H       0.00958   0.81182   0.76714 
H          H       0.18818   0.19776   0.76714 
H          H       0.46891   0.32375   0.93381 
H          H       0.67625   0.14515   0.93381 
H          H       0.85485   0.53109   0.93381 
H          H       0.13557   0.65709   0.60047 
H          H       0.34291   0.47849   0.60047 
H          H       0.52151   0.86443   0.60047 
H          H       0.19776   0.00958   0.73286 
H          H       0.99042   0.18818   0.73286 
H          H       0.81182   0.80224   0.73286 
H          H       0.86443   0.34291   0.89953 
H          H       0.65709   0.52151   0.89953 
H          H       0.47849   0.13557   0.89953 
H          H       0.53109   0.67625   0.56619 
H          H       0.32375   0.85485   0.56619 
H          H       0.14515   0.46891   0.56619 
H          H       0.84097   0.97707   0.74541 
H          H       0.02293   0.86390   0.74541 
H          H       0.13610   0.15903   0.74541 
H          H       0.50764   0.31040   0.91208 
H          H       0.68960   0.19723   0.91208 
H          H       0.80277   0.49236   0.91208 
H          H       0.17430   0.64374   0.57874 
H          H       0.35626   0.53057   0.57874 
H          H       0.46943   0.82570   0.57874 
H          H       0.15903   0.02293   0.75459 
H          H       0.97707   0.13610   0.75459 
H          H       0.86390   0.84097   0.75459 
H          H       0.82570   0.35626   0.92126 
H          H       0.64374   0.46943   0.92126 
H          H       0.53057   0.17430   0.92126 
H          H       0.49236   0.68960   0.58792 
H          H       0.31040   0.80277   0.58792 
H          H       0.19723   0.50764   0.58792 
H          H       0.92591   0.12684   0.50507 
H          H       0.87316   0.79907   0.50507 
H          H       0.20093   0.07409   0.50507 
H          H       0.59258   0.46017   0.67174 
H          H       0.53983   0.13240   0.67174 
H          H       0.86760   0.40742   0.67174 
H          H       0.25924   0.79351   0.83841 
H          H       0.20649   0.46574   0.83841 
H          H       0.53426   0.74076   0.83841 
H          H       0.07409   0.87316   0.99493 
H          H       0.12684   0.20093   0.99493 
H          H       0.79907   0.92591   0.99493 
H          H       0.74076   0.20649   0.66159 
H          H       0.79351   0.53426   0.66159 
H          H       0.46574   0.25924   0.66159 
H          H       0.40742   0.53983   0.82826 
H          H       0.46017   0.86760   0.82826 
H          H       0.13240   0.59258   0.82826 
H          H       0.98925   0.17717   0.57632 
H          H       0.82283   0.81208   0.57632 
H          H       0.18792   0.01075   0.57632 
H          H       0.65592   0.51050   0.74299 
H          H       0.48950   0.14541   0.74299 
H          H       0.85459   0.34408   0.74299 
H          H       0.32258   0.84384   0.90966 
H          H       0.15616   0.47875   0.90966 
H          H       0.52125   0.67742   0.90966 
H          H       0.01075   0.82283   0.92368 
H          H       0.17717   0.18792   0.92368 
H          H       0.81208   0.98925   0.92368 
H          H       0.67742   0.15616   0.59034 
H          H       0.84384   0.52125   0.59034 
H          H       0.47875   0.32258   0.59034 
H          H       0.34408   0.48950   0.75701 
H          H       0.51050   0.85459   0.75701 
H          H       0.14541   0.65592   0.75701 
H          H       0.99651   0.18290   0.98203 
H          H       0.81710   0.81361   0.98203 
H          H       0.18639   0.00349   0.98203 
H          H       0.66318   0.51623   0.64869 
H          H       0.48377   0.14694   0.64869 
H          H       0.85306   0.33682   0.64869 
H          H       0.32984   0.84957   0.81536 
H          H       0.15043   0.48028   0.81536 
H          H       0.51972   0.67016   0.81536 
H          H       0.00349   0.81710   0.51797 
H          H       0.18290   0.18639   0.51797 
H          H       0.81361   0.99651   0.51797 
H          H       0.67016   0.15043   0.68464 
H          H       0.84957   0.51972   0.68464 
H          H       0.48028   0.32984   0.68464 
H          H       0.33682   0.48377   0.85131 
H          H       0.51623   0.85306   0.85131 
H          H       0.14694   0.66318   0.85131 
H          H       0.01841   0.15750   0.53182 
H          H       0.84250   0.86091   0.53182 
H          H       0.13909   0.98159   0.53182 
H          H       0.68508   0.49083   0.69849 
H          H       0.50917   0.19424   0.69849 
H          H       0.80576   0.31492   0.69849 
H          H       0.35174   0.82417   0.86516 
H          H       0.17583   0.52758   0.86516 
H          H       0.47242   0.64826   0.86516 
H          H       0.98159   0.84250   0.96817 
H          H       0.15750   0.13909   0.96817 
H          H       0.86091   0.01841   0.96817 
H          H       0.64826   0.17583   0.63484 
H          H       0.82417   0.47242   0.63484 
H          H       0.52758   0.35174   0.63484 
H          H       0.31492   0.50917   0.80151 
H          H       0.49083   0.80576   0.80151 
H          H       0.19424   0.68508   0.80151 
H          H       0.98481   0.09836   0.94818 
H          H       0.90164   0.88645   0.94818 
H          H       0.11355   0.01519   0.94818 
H          H       0.65148   0.43169   0.61484 
H          H       0.56831   0.21978   0.61484 
H          H       0.78022   0.34852   0.61484 
H          H       0.31814   0.76503   0.78151 
H          H       0.23497   0.55312   0.78151 
H          H       0.44688   0.68186   0.78151 
H          H       0.01519   0.90164   0.55183 
H          H       0.09836   0.11355   0.55183 
H          H       0.88645   0.98481   0.55183 
H          H       0.68186   0.23497   0.71849 
H          H       0.76503   0.44688   0.71849 
H          H       0.55312   0.31814   0.71849 
H          H       0.34852   0.56831   0.88516 
H          H       0.43169   0.78022   0.88516 
H          H       0.21978   0.65148   0.88516 
H          H       0.95644   0.11718   0.90074 
H          H       0.88282   0.83926   0.90074 
H          H       0.16074   0.04356   0.90074 
H          H       0.62311   0.45051   0.56740 
H          H       0.54949   0.17259   0.56740 
H          H       0.82741   0.37689   0.56740 
H          H       0.28977   0.78385   0.73407 
H          H       0.21615   0.50593   0.73407 
H          H       0.49407   0.71023   0.73407 
H          H       0.04356   0.88282   0.59927 
H          H       0.11718   0.16074   0.59927 
H          H       0.83926   0.95644   0.59927 
H          H       0.71023   0.21615   0.76593 
H          H       0.78385   0.49407   0.76593 
H          H       0.50593   0.28977   0.76593 
H          H       0.37689   0.54949   0.93260 
H          H       0.45051   0.82741   0.93260 
H          H       0.17259   0.62311   0.93260 
H          H       0.92989   0.06801   0.94312 
H          H       0.93199   0.86188   0.94312 
H          H       0.13812   0.07011   0.94312 
H          H       0.59656   0.40134   0.60979 
H          H       0.59866   0.19521   0.60979 
H          H       0.80479   0.40344   0.60979 
H          H       0.26322   0.73468   0.77645 
H          H       0.26532   0.52855   0.77645 
H          H       0.47145   0.73678   0.77645 
H          H       0.07011   0.93199   0.55688 
H          H       0.06801   0.13812   0.55688 
H          H       0.86188   0.92989   0.55688 
H          H       0.73678   0.26532   0.72355 
H          H       0.73468   0.47145   0.72355 
H          H       0.52855   0.26322   0.72355 
H          H       0.40344   0.59866   0.89021 
H          H       0.40134   0.80479   0.89021 
H          H       0.19521   0.59656   0.89021 
H          H       0.92351   0.16148   0.61675 
H          H       0.83852   0.76203   0.61675 
H          H       0.23797   0.07649   0.61675 
H          H       0.59018   0.49481   0.78342 
H          H       0.50519   0.09536   0.78342 
H          H       0.90464   0.40982   0.78342 
H          H       0.25684   0.82815   0.95008 
H          H       0.17185   0.42870   0.95008 
H          H       0.57130   0.74316   0.95008 
H          H       0.07649   0.83852   0.88325 
H          H       0.16148   0.23797   0.88325 
H          H       0.76203   0.92351   0.88325 
H          H       0.74316   0.17185   0.54992 
H          H       0.82815   0.57130   0.54992 
H          H       0.42870   0.25684   0.54992 
H          H       0.40982   0.50519   0.71658 
H          H       0.49481   0.90464   0.71658 
H          H       0.09536   0.59018   0.71658 
