data_crystal
 
_cell_length_a    30.07570
_cell_length_b    32.35340
_cell_length_c    25.93440
_cell_angle_alpha 92.62340
_cell_angle_beta  88.24940
_cell_angle_gamma 117.73200
 
_symmetry_space_group_name_Hall 'P 1'
_symmetry_space_group_name_H-M  'P 1'
 
loop_
_symmetry_equiv_pos_as_xyz
 'x,y,z' 
 
loop_
_atom_site_label
_atom_site_type_symbol
_atom_site_fract_x
_atom_site_fract_y
_atom_site_fract_z
C          C       0.45884   0.51376   0.41461 
C          C       0.48503   0.94343   0.41112 
C          C       0.05658   0.54160   0.41109 
C          C       0.12557   0.84727   0.08148 
C          C       0.15288   0.27842   0.08136 
C          C       0.72172   0.87444   0.08149 
C          C       0.79213   0.18041   0.24829 
C          C       0.81962   0.61176   0.24825 
C          C       0.38824   0.20777   0.24802 
C          C       0.45547   0.46836   0.43662 
C          C       0.53213   0.98591   0.43513 
C          C       0.01415   0.54631   0.43508 
C          C       0.12222   0.80191   0.10358 
C          C       0.19829   0.32046   0.10335 
C          C       0.67968   0.87776   0.10358 
C          C       0.78883   0.13502   0.27024 
C          C       0.86500   0.65384   0.27021 
C          C       0.34620   0.21114   0.27001 
C          C       0.53127   0.51651   0.43590 
C          C       0.48257   0.01507   0.43438 
C          C       0.98489   0.46750   0.43431 
C          C       0.19801   0.85007   0.10278 
C          C       0.15012   0.34809   0.10268 
C          C       0.65207   0.80197   0.10272 
C          C       0.86461   0.18321   0.26941 
C          C       0.81681   0.68143   0.26939 
C          C       0.31857   0.13535   0.26933 
C          C       0.51306   0.54872   0.41505 
C          C       0.45015   0.96326   0.41146 
C          C       0.03671   0.48689   0.41143 
C          C       0.17978   0.88223   0.08186 
C          C       0.11792   0.29768   0.08182 
C          C       0.70248   0.82023   0.08184 
C          C       0.84634   0.21538   0.24863 
C          C       0.78464   0.63100   0.24859 
C          C       0.36898   0.15355   0.24849 
C          C       0.49496   0.48630   0.47659 
C          C       0.51352   0.00820   0.47507 
C          C       0.99178   0.50536   0.47513 
C          C       0.16173   0.81992   0.14353 
C          C       0.18036   0.34199   0.14334 
C          C       0.65816   0.83822   0.14348 
C          C       0.82837   0.15297   0.31013 
C          C       0.84704   0.67541   0.31012 
C          C       0.32466   0.17168   0.31000 
C          C       0.47106   0.44582   0.39457 
C          C       0.55420   0.02463   0.39073 
C          C       0.97544   0.52967   0.39069 
C          C       0.13778   0.77928   0.06159 
C          C       0.22081   0.35860   0.06130 
C          C       0.64153   0.86222   0.06156 
C          C       0.80438   0.11250   0.22811 
C          C       0.88753   0.69193   0.22811 
C          C       0.30807   0.19554   0.22795 
C          C       0.52551   0.48093   0.39341 
C          C       0.51924   0.04459   0.38965 
C          C       0.95540   0.47474   0.38961 
C          C       0.19223   0.81442   0.06037 
C          C       0.18569   0.37792   0.06018 
C          C       0.62222   0.80778   0.06028 
C          C       0.85882   0.14764   0.22689 
C          C       0.85238   0.71123   0.22689 
C          C       0.28874   0.14109   0.22682 
C          C       0.48084   0.40626   0.40788 
C          C       0.59374   0.07459   0.40699 
C          C       0.92553   0.51935   0.40697 
C          C       0.14764   0.73979   0.07502 
C          C       0.26035   0.40796   0.07459 
C          C       0.59217   0.85235   0.07495 
C          C       0.81426   0.07299   0.24133 
C          C       0.92704   0.74132   0.24135 
C          C       0.25871   0.18571   0.24125 
C          C       0.46017   0.35834   0.38922 
C          C       0.64191   0.10255   0.38952 
C          C       0.89764   0.53965   0.38952 
C          C       0.12702   0.69181   0.05655 
C          C       0.30825   0.43527   0.05588 
C          C       0.56483   0.87300   0.05649 
C          C       0.79365   0.02507   0.22265 
C          C       0.97495   0.76862   0.22265 
C          C       0.23141   0.20632   0.22256 
C          C       0.49236   0.34127   0.37626 
C          C       0.65890   0.15195   0.37744 
C          C       0.84823   0.50732   0.37743 
C          C       0.15925   0.67476   0.04372 
C          C       0.32526   0.48451   0.04291 
C          C       0.51557   0.84079   0.04358 
C          C       0.82589   0.00807   0.20965 
C          C       0.99195   0.81785   0.20964 
C          C       0.18216   0.17409   0.20959 
C          C       0.54318   0.37446   0.37377 
C          C       0.62576   0.16963   0.37471 
C          C       0.83045   0.45648   0.37470 
C          C       0.21007   0.70800   0.04122 
C          C       0.29202   0.50209   0.04050 
C          C       0.49799   0.78998   0.04099 
C          C       0.87670   0.04132   0.20717 
C          C       0.95871   0.83542   0.20716 
C          C       0.16457   0.12328   0.20715 
C          C       0.56159   0.42415   0.38477 
C          C       0.57592   0.13847   0.38499 
C          C       0.86153   0.43771   0.38497 
C          C       0.22842   0.75770   0.05203 
C          C       0.24236   0.47078   0.05160 
C          C       0.52933   0.77160   0.05180 
C          C       0.89505   0.09099   0.21819 
C          C       0.90904   0.80410   0.21820 
C          C       0.19588   0.10491   0.21821 
C          C       0.52974   0.43792   0.40560 
C          C       0.56155   0.09260   0.40529 
C          C       0.90743   0.46913   0.40525 
C          C       0.19652   0.77148   0.07272 
C          C       0.22866   0.42516   0.07240 
C          C       0.57497   0.80347   0.07258 
C          C       0.86315   0.10469   0.23905 
C          C       0.89534   0.75850   0.23906 
C          C       0.24150   0.13682   0.23903 
C          C       0.42198   0.56511   0.44383 
C          C       0.43438   0.85575   0.44445 
C          C       0.14424   0.57860   0.44445 
C          C       0.08879   0.89875   0.11065 
C          C       0.10145   0.19019   0.11062 
C          C       0.80996   0.91122   0.11070 
C          C       0.75533   0.23180   0.27772 
C          C       0.76823   0.52356   0.27759 
C          C       0.47646   0.24457   0.27729 
C          C       0.45509   0.54885   0.44926 
C          C       0.45122   0.90524   0.44890 
C          C       0.09474   0.54596   0.44890 
C          C       0.12188   0.88245   0.11606 
C          C       0.11776   0.23959   0.11601 
C          C       0.76057   0.87812   0.11609 
C          C       0.78845   0.21551   0.28300 
C          C       0.78450   0.57295   0.28293 
C          C       0.42707   0.21149   0.28268 
C          C       0.50431   0.58066   0.45066 
C          C       0.41881   0.92331   0.44998 
C          C       0.07665   0.49548   0.44998 
C          C       0.17110   0.91424   0.11743 
C          C       0.08596   0.25702   0.11744 
C          C       0.74315   0.82890   0.11744 
C          C       0.83767   0.24733   0.28429 
C          C       0.75268   0.59035   0.28424 
C          C       0.40964   0.16226   0.28411 
C          C       0.52332   0.63120   0.44703 
C          C       0.36831   0.89160   0.44777 
C          C       0.10835   0.47667   0.44775 
C          C       0.19016   0.96478   0.11378 
C          C       0.03542   0.22553   0.11384 
C          C       0.77465   0.80986   0.11378 
C          C       0.85669   0.29787   0.28064 
C          C       0.70215   0.55884   0.28053 
C          C       0.44113   0.14321   0.28051 
C          C       0.49025   0.64875   0.44549 
C          C       0.35087   0.84101   0.44712 
C          C       0.15895   0.50982   0.44703 
C          C       0.15711   0.98237   0.11229 
C          C       0.01783   0.17490   0.11234 
C          C       0.82527   0.84292   0.11231 
C          C       0.82363   0.31542   0.27923 
C          C       0.68460   0.50822   0.27903 
C          C       0.49176   0.17626   0.27902 
C          C       0.43945   0.61548   0.44260 
C          C       0.38394   0.82323   0.44400 
C          C       0.17674   0.56066   0.44393 
C          C       0.10631   0.94913   0.10944 
C          C       0.05107   0.15733   0.10945 
C          C       0.84283   0.89372   0.10948 
C          C       0.77282   0.28217   0.27647 
C          C       0.71786   0.49067   0.27625 
C          C       0.50933   0.22706   0.27613 
C          C       0.57722   0.66565   0.44330 
C          C       0.33363   0.91079   0.44426 
C          C       0.08914   0.42280   0.44428 
C          C       0.24407   0.99919   0.11000 
C          C       0.00102   0.24504   0.11006 
C          C       0.75516   0.75596   0.10999 
C          C       0.91059   0.33229   0.27671 
C          C       0.66772   0.57831   0.27667 
C          C       0.42164   0.08930   0.27676 
C          C       0.40601   0.32685   0.38288 
C          C       0.67369   0.08024   0.38298 
C          C       0.92005   0.59375   0.38300 
C          C       0.07287   0.66025   0.05027 
C          C       0.33979   0.41266   0.04947 
C          C       0.58743   0.92716   0.05031 
C          C       0.73951   0.99354   0.21626 
C          C       0.00648   0.74600   0.21627 
C          C       0.25403   0.26047   0.21616 
C          C       0.37997   0.66859   0.36655 
C          C       0.33098   0.71141   0.36728 
C          C       0.28823   0.61965   0.36674 
C          C       0.04688   0.00196   0.03296 
C          C       0.99817   0.04504   0.03302 
C          C       0.95508   0.95323   0.03301 
C          C       0.71351   0.33508   0.19993 
C          C       0.66495   0.37831   0.19983 
C          C       0.62171   0.28650   0.19981 
C          C       0.37803   0.71341   0.35640 
C          C       0.28626   0.66478   0.35634 
C          C       0.33484   0.62165   0.35552 
C          C       0.04510   0.04677   0.02223 
C          C       0.95334   0.99844   0.02233 
C          C       0.00167   0.95501   0.02223 
C          C       0.71184   0.37994   0.18912 
C          C       0.62008   0.33177   0.18910 
C          C       0.66827   0.28818   0.18915 
O          O       0.41551   0.75258   0.34936 
O          O       0.24711   0.66313   0.34932 
O          O       0.33644   0.58421   0.34775 
O          O       0.08264   0.08580   0.01485 
O          O       0.91430   0.99695   0.01501 
O          O       0.00317   0.91747   0.01486 
O          O       0.74942   0.41892   0.18169 
O          O       0.58109   0.33036   0.18169 
O          O       0.66970   0.25061   0.18179 
C          C       0.41506   0.67101   0.39848 
C          C       0.32826   0.74364   0.39966 
C          C       0.25614   0.58463   0.39916 
C          C       0.08195   0.00453   0.06503 
C          C       0.99563   0.07756   0.06509 
C          C       0.92258   0.91813   0.06506 
C          C       0.74851   0.33760   0.23209 
C          C       0.66246   0.41090   0.23184 
C          C       0.58911   0.25141   0.23181 
N          N       0.40511   0.63134   0.43329 
N          N       0.36758   0.77288   0.43506 
N          N       0.22708   0.59463   0.43493 
N          N       0.07202   0.96505   0.10013 
N          N       0.03514   0.10712   0.10014 
N          N       0.89304   0.92803   0.10018 
N          N       0.73852   0.29807   0.26713 
N          N       0.70198   0.44048   0.26688 
N          N       0.55954   0.26136   0.26683 
C          C       0.61693   0.32646   0.41058 
C          C       0.67358   0.29151   0.41126 
C          C       0.70851   0.38309   0.41127 
C          C       0.28408   0.65968   0.07712 
C          C       0.34028   0.62419   0.07666 
C          C       0.37579   0.71588   0.07705 
C          C       0.95070   0.99310   0.24308 
C          C       0.00690   0.95762   0.24307 
C          C       0.04239   0.04930   0.24308 
C          C       0.62409   0.28452   0.41950 
C          C       0.71544   0.34064   0.42022 
C          C       0.65932   0.37588   0.41958 
C          C       0.29099   0.61753   0.08550 
C          C       0.38242   0.67318   0.08544 
C          C       0.32677   0.70897   0.08581 
C          C       0.95759   0.95097   0.25172 
C          C       0.04903   0.00664   0.25174 
C          C       0.99336   0.04241   0.25174 
O          O       0.58933   0.24414   0.42972 
O          O       0.75578   0.34635   0.43086 
O          O       0.65356   0.41055   0.42984 
O          O       0.25618   0.57725   0.09599 
O          O       0.42266   0.67856   0.09593 
O          O       0.32136   0.74379   0.09648 
O          O       0.92278   0.91073   0.26230 
O          O       0.08927   0.01207   0.26233 
O          O       0.98793   0.07722   0.26234 
C          C       0.57638   0.31965   0.38614 
C          C       0.68058   0.25769   0.38731 
C          C       0.74242   0.42369   0.38708 
C          C       0.24331   0.65316   0.05348 
C          C       0.34685   0.59014   0.05260 
C          C       0.40995   0.75668   0.05337 
C          C       0.90998   0.98652   0.21925 
C          C       0.01349   0.92349   0.21923 
C          C       0.07651   0.09001   0.21923 
N          N       0.57607   0.35861   0.35786 
N          N       0.64185   0.21843   0.35878 
N          N       0.78161   0.42385   0.35881 
N          N       0.24303   0.69221   0.02537 
N          N       0.30777   0.55080   0.02455 
N          N       0.44925   0.75706   0.02510 
N          N       0.90965   0.02557   0.19119 
N          N       0.97446   0.88412   0.19115 
N          N       0.11587   0.09034   0.19115 
H          H       0.43943   0.50798   0.37730 
H          H       0.48880   0.92911   0.37208 
H          H       0.07093   0.55969   0.37206 
H          H       0.10612   0.84144   0.04418 
H          H       0.15864   0.26477   0.04405 
H          H       0.73535   0.89391   0.04421 
H          H       0.77264   0.17462   0.21104 
H          H       0.82541   0.59808   0.21099 
H          H       0.40189   0.22718   0.21072 
H          H       0.41949   0.44314   0.45194 
H          H       0.55785   0.97494   0.45146 
H          H       0.02516   0.58303   0.45137 
H          H       0.08624   0.77671   0.11894 
H          H       0.22352   0.30970   0.11865 
H          H       0.69044   0.91372   0.11897 
H          H       0.75287   0.10977   0.28561 
H          H       0.89024   0.64312   0.28559 
H          H       0.35697   0.24713   0.28531 
H          H       0.56845   0.53715   0.45039 
H          H       0.46181   0.03222   0.44997 
H          H       0.96770   0.42958   0.44984 
H          H       0.23520   0.87074   0.11723 
H          H       0.12949   0.36462   0.11719 
H          H       0.63554   0.76477   0.11714 
H          H       0.90181   0.20387   0.28384 
H          H       0.79614   0.69796   0.28383 
H          H       0.30203   0.09818   0.28384 
H          H       0.53040   0.56667   0.37805 
H          H       0.43228   0.96101   0.37266 
H          H       0.03896   0.47127   0.37263 
H          H       0.19710   0.90013   0.04483 
H          H       0.09997   0.29708   0.04483 
H          H       0.70309   0.80294   0.04480 
H          H       0.86361   0.23332   0.21159 
H          H       0.76671   0.63034   0.21155 
H          H       0.36959   0.13620   0.21149 
H          H       0.49143   0.50521   0.01077 
H          H       0.49435   0.98571   0.00903 
H          H       0.01431   0.50865   0.00919 
H          H       0.15822   0.83888   0.17766 
H          H       0.16147   0.31956   0.17752 
H          H       0.68061   0.84171   0.17763 
H          H       0.82487   0.17187   0.34435 
H          H       0.82814   0.65301   0.34432 
H          H       0.34709   0.17522   0.34418 
H          H       0.50062   0.45916   0.49672 
H          H       0.54093   0.04095   0.49491 
H          H       0.95893   0.50002   0.49501 
H          H       0.16741   0.79282   0.16371 
H          H       0.20751   0.37480   0.16346 
H          H       0.62536   0.83251   0.16365 
H          H       0.83408   0.12584   0.33021 
H          H       0.87416   0.70825   0.33021 
H          H       0.29185   0.16602   0.33011 
H          H       0.45085   0.43909   0.35771 
H          H       0.56028   0.01215   0.35164 
H          H       0.98793   0.54823   0.35159 
H          H       0.11755   0.77246   0.02474 
H          H       0.22753   0.34513   0.02442 
H          H       0.65497   0.88250   0.02474 
H          H       0.78413   0.10577   0.19129 
H          H       0.89426   0.67842   0.19128 
H          H       0.32154   0.21573   0.19109 
H          H       0.54249   0.49798   0.35595 
H          H       0.50359   0.04432   0.34999 
H          H       0.95564   0.45935   0.34994 
H          H       0.20918   0.83139   0.02287 
H          H       0.16862   0.37785   0.02272 
H          H       0.62230   0.79087   0.02277 
H          H       0.87575   0.16470   0.18941 
H          H       0.83533   0.71111   0.18940 
H          H       0.28882   0.12410   0.18937 
H          H       0.47815   0.30358   0.36472 
H          H       0.69672   0.17565   0.36651 
H          H       0.82459   0.52151   0.36651 
H          H       0.14508   0.63705   0.03228 
H          H       0.36292   0.50801   0.03130 
H          H       0.49204   0.85498   0.03216 
H          H       0.81172   0.97040   0.19806 
H          H       0.02963   0.84135   0.19804 
H          H       0.15866   0.18827   0.19800 
H          H       0.59930   0.45119   0.37685 
H          H       0.54917   0.14946   0.37678 
H          H       0.85046   0.39994   0.37676 
H          H       0.26612   0.78475   0.04410 
H          H       0.21529   0.48142   0.04378 
H          H       0.51868   0.73392   0.04379 
H          H       0.93275   0.11806   0.21029 
H          H       0.88197   0.81472   0.21030 
H          H       0.18524   0.06721   0.21035 
H          H       0.38408   0.53929   0.43508 
H          H       0.45978   0.84318   0.43553 
H          H       0.15682   0.61658   0.43554 
H          H       0.05088   0.87296   0.10191 
H          H       0.12723   0.17807   0.10184 
H          H       0.82206   0.94914   0.10197 
H          H       0.71740   0.20598   0.26906 
H          H       0.79406   0.51146   0.26896 
H          H       0.48858   0.28248   0.26850 
H          H       0.50406   0.68771   0.44377 
H          H       0.31189   0.81584   0.44616 
H          H       0.18412   0.49601   0.44605 
H          H       0.17094   0.02134   0.11058 
H          H       0.97886   0.14976   0.11066 
H          H       0.85043   0.82910   0.11059 
H          H       0.83745   0.35439   0.27747 
H          H       0.64563   0.48307   0.27724 
H          H       0.51690   0.16243   0.27734 
H          H       0.58591   0.68557   0.40498 
H          H       0.31307   0.89882   0.40635 
H          H       0.10109   0.41418   0.40638 
H          H       0.25275   0.01912   0.07169 
H          H       0.98110   0.23380   0.07175 
H          H       0.76642   0.74729   0.07168 
H          H       0.91917   0.35213   0.23835 
H          H       0.64788   0.56710   0.23830 
H          H       0.43288   0.08061   0.23846 
H          H       0.59785   0.64575   0.44575 
H          H       0.35343   0.95137   0.44591 
H          H       0.04857   0.40203   0.44596 
H          H       0.26466   0.97925   0.11239 
H          H       0.02096   0.28557   0.11246 
H          H       0.71463   0.73536   0.11238 
H          H       0.93121   0.31238   0.27911 
H          H       0.68763   0.61884   0.27912 
H          H       0.38111   0.06871   0.27916 
H          H       0.58913   0.69231   0.47647 
H          H       0.30754   0.89649   0.47798 
H          H       0.10345   0.41102   0.47802 
H          H       0.25604   0.02584   0.14318 
H          H       0.97436   0.23035   0.14324 
H          H       0.76985   0.74399   0.14317 
H          H       0.92261   0.35902   0.30983 
H          H       0.64099   0.56356   0.30978 
H          H       0.43633   0.07735   0.30995 
H          H       0.39610   0.28950   0.36963 
H          H       0.71112   0.10797   0.37033 
H          H       0.89237   0.60353   0.37038 
H          H       0.06298   0.62284   0.03726 
H          H       0.37711   0.44012   0.03619 
H          H       0.55993   0.93707   0.03730 
H          H       0.72964   0.95621   0.20302 
H          H       0.04382   0.77346   0.20303 
H          H       0.22657   0.27034   0.20288 
H          H       0.39269   0.34318   0.35290 
H          H       0.65777   0.05101   0.35250 
H          H       0.94927   0.60702   0.35249 
H          H       0.05951   0.67641   0.02012 
H          H       0.32346   0.38301   0.01948 
H          H       0.61698   0.94056   0.02019 
H          H       0.72618   0.00985   0.18624 
H          H       0.99018   0.71637   0.18626 
H          H       0.28367   0.27379   0.18616 
H          H       0.38772   0.32397   0.42140 
H          H       0.67623   0.06431   0.42129 
H          H       0.93603   0.61220   0.42129 
H          H       0.05458   0.65754   0.08874 
H          H       0.34274   0.39726   0.08797 
H          H       0.60297   0.94539   0.08882 
H          H       0.72117   0.99064   0.25475 
H          H       0.00938   0.73057   0.25477 
H          H       0.26944   0.27881   0.25465 
H          H       0.44778   0.70581   0.40534 
H          H       0.29340   0.74149   0.40634 
H          H       0.25831   0.55190   0.40557 
H          H       0.11471   0.03934   0.07169 
H          H       0.96082   0.07551   0.07178 
H          H       0.92465   0.88537   0.07168 
H          H       0.78126   0.37240   0.23880 
H          H       0.62767   0.40890   0.23848 
H          H       0.59111   0.21862   0.23846 
H          H       0.36877   0.60703   0.44337 
H          H       0.39169   0.76060   0.44511 
H          H       0.23941   0.63100   0.44511 
H          H       0.03569   0.94084   0.11033 
H          H       0.05936   0.09500   0.11031 
H          H       0.90515   0.96435   0.11041 
H          H       0.70218   0.27386   0.27731 
H          H       0.72619   0.42836   0.27710 
H          H       0.57165   0.29768   0.27703 
H          H       0.54530   0.28320   0.38161 
H          H       0.71705   0.26300   0.38333 
H          H       0.73716   0.45485   0.38256 
H          H       0.21198   0.61682   0.04933 
H          H       0.38322   0.59524   0.04826 
H          H       0.40492   0.78802   0.04940 
H          H       0.87868   0.95016   0.21507 
H          H       0.04986   0.92856   0.21505 
H          H       0.07144   0.12131   0.21503 
H          H       0.60844   0.38427   0.33928 
H          H       0.61647   0.22521   0.33966 
H          H       0.77469   0.39152   0.33998 
H          H       0.27533   0.71787   0.00670 
H          H       0.28204   0.55743   0.00602 
H          H       0.44260   0.72480   0.00628 
H          H       0.94196   0.05126   0.17253 
H          H       0.94876   0.89072   0.17250 
H          H       0.10926   0.05803   0.17250 
C          C       0.45884   0.51376   0.91461 
C          C       0.48503   0.94343   0.91112 
C          C       0.05658   0.54160   0.91109 
C          C       0.12557   0.84727   0.58148 
C          C       0.15288   0.27842   0.58136 
C          C       0.72172   0.87444   0.58149 
C          C       0.79213   0.18041   0.74829 
C          C       0.81962   0.61176   0.74825 
C          C       0.38824   0.20777   0.74802 
C          C       0.45547   0.46836   0.93662 
C          C       0.53213   0.98591   0.93513 
C          C       0.01415   0.54631   0.93508 
C          C       0.12222   0.80191   0.60358 
C          C       0.19829   0.32046   0.60335 
C          C       0.67968   0.87776   0.60357 
C          C       0.78883   0.13502   0.77024 
C          C       0.86500   0.65384   0.77021 
C          C       0.34620   0.21114   0.77001 
C          C       0.53127   0.51651   0.93591 
C          C       0.48257   0.01507   0.93438 
C          C       0.98489   0.46750   0.93431 
C          C       0.19801   0.85007   0.60278 
C          C       0.15012   0.34809   0.60268 
C          C       0.65207   0.80197   0.60272 
C          C       0.86461   0.18321   0.76940 
C          C       0.81681   0.68143   0.76940 
C          C       0.31857   0.13535   0.76933 
C          C       0.51306   0.54872   0.91505 
C          C       0.45015   0.96326   0.91146 
C          C       0.03671   0.48689   0.91143 
C          C       0.17978   0.88223   0.58186 
C          C       0.11792   0.29768   0.58183 
C          C       0.70248   0.82023   0.58184 
C          C       0.84634   0.21538   0.74863 
C          C       0.78464   0.63100   0.74859 
C          C       0.36898   0.15355   0.74848 
C          C       0.49496   0.48630   0.97659 
C          C       0.51352   0.00820   0.97506 
C          C       0.99178   0.50536   0.97513 
C          C       0.16173   0.81992   0.64353 
C          C       0.18036   0.34199   0.64334 
C          C       0.65816   0.83822   0.64348 
C          C       0.82837   0.15297   0.81014 
C          C       0.84704   0.67541   0.81012 
C          C       0.32466   0.17168   0.81000 
C          C       0.47106   0.44582   0.89457 
C          C       0.55420   0.02463   0.89073 
C          C       0.97544   0.52967   0.89068 
C          C       0.13778   0.77928   0.56159 
C          C       0.22081   0.35860   0.56129 
C          C       0.64153   0.86222   0.56156 
C          C       0.80438   0.11250   0.72811 
C          C       0.88753   0.69193   0.72811 
C          C       0.30807   0.19554   0.72796 
C          C       0.52551   0.48093   0.89341 
C          C       0.51924   0.04459   0.88965 
C          C       0.95540   0.47474   0.88961 
C          C       0.19223   0.81442   0.56037 
C          C       0.18569   0.37792   0.56018 
C          C       0.62222   0.80778   0.56029 
C          C       0.85882   0.14764   0.72689 
C          C       0.85238   0.71123   0.72689 
C          C       0.28874   0.14109   0.72683 
C          C       0.48084   0.40626   0.90788 
C          C       0.59374   0.07459   0.90699 
C          C       0.92553   0.51935   0.90696 
C          C       0.14764   0.73979   0.57503 
C          C       0.26035   0.40796   0.57459 
C          C       0.59217   0.85235   0.57495 
C          C       0.81426   0.07299   0.74133 
C          C       0.92704   0.74132   0.74134 
C          C       0.25871   0.18571   0.74125 
C          C       0.46017   0.35834   0.88922 
C          C       0.64191   0.10255   0.88952 
C          C       0.89764   0.53965   0.88951 
C          C       0.12702   0.69181   0.55655 
C          C       0.30825   0.43527   0.55588 
C          C       0.56483   0.87300   0.55649 
C          C       0.79365   0.02507   0.72264 
C          C       0.97495   0.76862   0.72265 
C          C       0.23141   0.20632   0.72256 
C          C       0.49236   0.34127   0.87626 
C          C       0.65890   0.15195   0.87743 
C          C       0.84823   0.50732   0.87743 
C          C       0.15925   0.67476   0.54373 
C          C       0.32526   0.48451   0.54291 
C          C       0.51557   0.84079   0.54358 
C          C       0.82589   0.00807   0.70965 
C          C       0.99195   0.81785   0.70964 
C          C       0.18216   0.17409   0.70959 
C          C       0.54318   0.37446   0.87377 
C          C       0.62576   0.16963   0.87471 
C          C       0.83045   0.45648   0.87470 
C          C       0.21007   0.70800   0.54122 
C          C       0.29202   0.50209   0.54051 
C          C       0.49799   0.78998   0.54098 
C          C       0.87670   0.04132   0.70717 
C          C       0.95871   0.83542   0.70716 
C          C       0.16457   0.12328   0.70715 
C          C       0.56159   0.42415   0.88477 
C          C       0.57592   0.13847   0.88499 
C          C       0.86153   0.43771   0.88497 
C          C       0.22842   0.75770   0.55204 
C          C       0.24236   0.47078   0.55160 
C          C       0.52933   0.77160   0.55180 
C          C       0.89505   0.09099   0.71819 
C          C       0.90904   0.80410   0.71819 
C          C       0.19588   0.10491   0.71821 
C          C       0.52974   0.43792   0.90560 
C          C       0.56155   0.09260   0.90529 
C          C       0.90743   0.46913   0.90525 
C          C       0.19652   0.77148   0.57272 
C          C       0.22866   0.42516   0.57239 
C          C       0.57497   0.80347   0.57257 
C          C       0.86315   0.10469   0.73906 
C          C       0.89534   0.75850   0.73906 
C          C       0.24150   0.13682   0.73903 
C          C       0.42198   0.56511   0.94383 
C          C       0.43438   0.85575   0.94446 
C          C       0.14424   0.57860   0.94445 
C          C       0.08879   0.89875   0.61065 
C          C       0.10145   0.19019   0.61062 
C          C       0.80996   0.91122   0.61070 
C          C       0.75533   0.23180   0.77772 
C          C       0.76823   0.52356   0.77760 
C          C       0.47646   0.24457   0.77729 
C          C       0.45509   0.54885   0.94925 
C          C       0.45122   0.90524   0.94890 
C          C       0.09474   0.54596   0.94890 
C          C       0.12188   0.88245   0.61606 
C          C       0.11776   0.23959   0.61601 
C          C       0.76057   0.87812   0.61609 
C          C       0.78845   0.21551   0.78300 
C          C       0.78450   0.57295   0.78293 
C          C       0.42707   0.21149   0.78268 
C          C       0.50431   0.58066   0.95066 
C          C       0.41881   0.92331   0.94998 
C          C       0.07665   0.49548   0.94998 
C          C       0.17110   0.91424   0.61743 
C          C       0.08596   0.25702   0.61745 
C          C       0.74315   0.82890   0.61744 
C          C       0.83767   0.24733   0.78429 
C          C       0.75268   0.59035   0.78423 
C          C       0.40964   0.16226   0.78411 
C          C       0.52332   0.63120   0.94703 
C          C       0.36831   0.89160   0.94777 
C          C       0.10835   0.47667   0.94774 
C          C       0.19016   0.96478   0.61377 
C          C       0.03542   0.22553   0.61384 
C          C       0.77465   0.80986   0.61378 
C          C       0.85669   0.29787   0.78064 
C          C       0.70215   0.55884   0.78053 
C          C       0.44113   0.14321   0.78051 
C          C       0.49025   0.64875   0.94549 
C          C       0.35087   0.84101   0.94711 
C          C       0.15895   0.50982   0.94703 
C          C       0.15711   0.98237   0.61229 
C          C       0.01783   0.17490   0.61234 
C          C       0.82527   0.84292   0.61231 
C          C       0.82363   0.31542   0.77922 
C          C       0.68460   0.50822   0.77902 
C          C       0.49176   0.17626   0.77902 
C          C       0.43945   0.61548   0.94260 
C          C       0.38394   0.82323   0.94400 
C          C       0.17674   0.56066   0.94393 
C          C       0.10631   0.94913   0.60944 
C          C       0.05107   0.15733   0.60945 
C          C       0.84283   0.89372   0.60948 
C          C       0.77282   0.28217   0.77647 
C          C       0.71786   0.49067   0.77625 
C          C       0.50933   0.22706   0.77612 
C          C       0.57722   0.66565   0.94330 
C          C       0.33363   0.91079   0.94426 
C          C       0.08914   0.42280   0.94428 
C          C       0.24407   0.99919   0.61000 
C          C       0.00102   0.24504   0.61006 
C          C       0.75516   0.75596   0.60999 
C          C       0.91059   0.33229   0.77672 
C          C       0.66772   0.57831   0.77667 
C          C       0.42164   0.08930   0.77677 
C          C       0.40601   0.32685   0.88289 
C          C       0.67369   0.08024   0.88298 
C          C       0.92005   0.59375   0.88300 
C          C       0.07287   0.66025   0.55027 
C          C       0.33979   0.41266   0.54947 
C          C       0.58743   0.92716   0.55030 
C          C       0.73951   0.99354   0.71626 
C          C       0.00648   0.74600   0.71628 
C          C       0.25403   0.26047   0.71616 
C          C       0.37997   0.66859   0.86655 
C          C       0.33098   0.71141   0.86728 
C          C       0.28823   0.61965   0.86674 
C          C       0.04688   0.00196   0.53296 
C          C       0.99817   0.04504   0.53302 
C          C       0.95508   0.95323   0.53301 
C          C       0.71351   0.33508   0.69993 
C          C       0.66495   0.37831   0.69983 
C          C       0.62171   0.28650   0.69981 
C          C       0.37803   0.71341   0.85640 
C          C       0.28626   0.66478   0.85634 
C          C       0.33484   0.62165   0.85552 
C          C       0.04510   0.04677   0.52223 
C          C       0.95334   0.99844   0.52233 
C          C       0.00167   0.95501   0.52223 
C          C       0.71184   0.37994   0.68912 
C          C       0.62008   0.33177   0.68910 
C          C       0.66827   0.28818   0.68915 
O          O       0.41551   0.75258   0.84936 
O          O       0.24711   0.66313   0.84933 
O          O       0.33644   0.58421   0.84775 
O          O       0.08264   0.08580   0.51484 
O          O       0.91430   0.99695   0.51501 
O          O       0.00317   0.91747   0.51487 
O          O       0.74942   0.41892   0.68169 
O          O       0.58109   0.33036   0.68168 
O          O       0.66970   0.25061   0.68179 
C          C       0.41506   0.67101   0.89848 
C          C       0.32826   0.74364   0.89967 
C          C       0.25614   0.58463   0.89916 
C          C       0.08195   0.00453   0.56503 
C          C       0.99563   0.07756   0.56508 
C          C       0.92258   0.91813   0.56505 
C          C       0.74851   0.33760   0.73208 
C          C       0.66246   0.41090   0.73184 
C          C       0.58911   0.25141   0.73181 
N          N       0.40511   0.63134   0.93328 
N          N       0.36758   0.77288   0.93507 
N          N       0.22708   0.59463   0.93493 
N          N       0.07202   0.96505   0.60013 
N          N       0.03514   0.10712   0.60014 
N          N       0.89304   0.92803   0.60018 
N          N       0.73852   0.29807   0.76713 
N          N       0.70198   0.44048   0.76688 
N          N       0.55954   0.26136   0.76683 
C          C       0.61693   0.32646   0.91059 
C          C       0.67358   0.29151   0.91126 
C          C       0.70851   0.38309   0.91126 
C          C       0.28408   0.65968   0.57712 
C          C       0.34028   0.62419   0.57666 
C          C       0.37579   0.71588   0.57705 
C          C       0.95070   0.99310   0.74308 
C          C       0.00690   0.95762   0.74307 
C          C       0.04239   0.04930   0.74308 
C          C       0.62409   0.28452   0.91950 
C          C       0.71544   0.34064   0.92022 
C          C       0.65932   0.37588   0.91958 
C          C       0.29099   0.61753   0.58550 
C          C       0.38242   0.67318   0.58544 
C          C       0.32677   0.70897   0.58581 
C          C       0.95759   0.95097   0.75172 
C          C       0.04903   0.00664   0.75174 
C          C       0.99336   0.04241   0.75174 
O          O       0.58933   0.24414   0.92971 
O          O       0.75578   0.34635   0.93086 
O          O       0.65356   0.41055   0.92984 
O          O       0.25618   0.57725   0.59598 
O          O       0.42266   0.67856   0.59593 
O          O       0.32136   0.74379   0.59647 
O          O       0.92278   0.91073   0.76230 
O          O       0.08927   0.01207   0.76233 
O          O       0.98793   0.07722   0.76234 
C          C       0.57638   0.31965   0.88614 
C          C       0.68058   0.25769   0.88731 
C          C       0.74242   0.42369   0.88708 
C          C       0.24331   0.65316   0.55348 
C          C       0.34685   0.59014   0.55259 
C          C       0.40995   0.75668   0.55336 
C          C       0.90998   0.98652   0.71925 
C          C       0.01349   0.92349   0.71923 
C          C       0.07651   0.09001   0.71923 
N          N       0.57607   0.35861   0.85786 
N          N       0.64185   0.21843   0.85878 
N          N       0.78161   0.42385   0.85881 
N          N       0.24303   0.69221   0.52537 
N          N       0.30777   0.55080   0.52455 
N          N       0.44925   0.75706   0.52510 
N          N       0.90965   0.02557   0.69119 
N          N       0.97446   0.88412   0.69116 
N          N       0.11587   0.09034   0.69116 
H          H       0.43943   0.50798   0.87730 
H          H       0.48880   0.92911   0.87208 
H          H       0.07093   0.55969   0.87206 
H          H       0.10612   0.84144   0.54419 
H          H       0.15864   0.26477   0.54406 
H          H       0.73535   0.89391   0.54422 
H          H       0.77264   0.17462   0.71103 
H          H       0.82541   0.59808   0.71098 
H          H       0.40189   0.22718   0.71071 
H          H       0.41949   0.44314   0.95194 
H          H       0.55785   0.97494   0.95146 
H          H       0.02516   0.58303   0.95137 
H          H       0.08624   0.77671   0.61894 
H          H       0.22352   0.30970   0.61865 
H          H       0.69044   0.91372   0.61896 
H          H       0.75287   0.10977   0.78561 
H          H       0.89024   0.64312   0.78559 
H          H       0.35697   0.24713   0.78531 
H          H       0.56845   0.53715   0.95039 
H          H       0.46181   0.03222   0.94997 
H          H       0.96770   0.42958   0.94985 
H          H       0.23520   0.87074   0.61723 
H          H       0.12949   0.36462   0.61719 
H          H       0.63554   0.76477   0.61713 
H          H       0.90181   0.20387   0.78383 
H          H       0.79614   0.69796   0.78383 
H          H       0.30203   0.09818   0.78384 
H          H       0.53040   0.56667   0.87805 
H          H       0.43228   0.96101   0.87265 
H          H       0.03896   0.47127   0.87263 
H          H       0.19710   0.90013   0.54483 
H          H       0.09997   0.29708   0.54483 
H          H       0.70309   0.80294   0.54480 
H          H       0.86361   0.23332   0.71159 
H          H       0.76671   0.63034   0.71155 
H          H       0.36959   0.13620   0.71149 
H          H       0.49143   0.50521   0.51077 
H          H       0.49435   0.98571   0.50904 
H          H       0.01431   0.50865   0.50919 
H          H       0.15822   0.83888   0.67766 
H          H       0.16147   0.31956   0.67752 
H          H       0.68061   0.84171   0.67763 
H          H       0.82487   0.17187   0.84435 
H          H       0.82814   0.65301   0.84432 
H          H       0.34709   0.17522   0.84418 
H          H       0.50062   0.45916   0.99672 
H          H       0.54093   0.04095   0.99491 
H          H       0.95893   0.50002   0.99501 
H          H       0.16741   0.79282   0.66371 
H          H       0.20751   0.37480   0.66346 
H          H       0.62536   0.83251   0.66365 
H          H       0.83408   0.12584   0.83021 
H          H       0.87416   0.70825   0.83021 
H          H       0.29185   0.16602   0.83011 
H          H       0.45085   0.43909   0.85771 
H          H       0.56028   0.01215   0.85164 
H          H       0.98793   0.54823   0.85160 
H          H       0.11755   0.77246   0.52475 
H          H       0.22753   0.34513   0.52443 
H          H       0.65497   0.88250   0.52473 
H          H       0.78413   0.10577   0.69129 
H          H       0.89426   0.67842   0.69128 
H          H       0.32154   0.21573   0.69109 
H          H       0.54249   0.49798   0.85594 
H          H       0.50359   0.04432   0.84999 
H          H       0.95564   0.45935   0.84994 
H          H       0.20918   0.83139   0.52287 
H          H       0.16862   0.37785   0.52272 
H          H       0.62230   0.79087   0.52277 
H          H       0.87575   0.16470   0.68941 
H          H       0.83533   0.71111   0.68940 
H          H       0.28882   0.12410   0.68937 
H          H       0.47815   0.30358   0.86472 
H          H       0.69672   0.17565   0.86651 
H          H       0.82459   0.52151   0.86651 
H          H       0.14508   0.63705   0.53228 
H          H       0.36292   0.50801   0.53131 
H          H       0.49204   0.85498   0.53216 
H          H       0.81172   0.97040   0.69807 
H          H       0.02963   0.84135   0.69805 
H          H       0.15866   0.18827   0.69800 
H          H       0.59930   0.45119   0.87685 
H          H       0.54917   0.14946   0.87677 
H          H       0.85046   0.39994   0.87676 
H          H       0.26612   0.78475   0.54411 
H          H       0.21529   0.48142   0.54378 
H          H       0.51868   0.73392   0.54379 
H          H       0.93275   0.11806   0.71029 
H          H       0.88197   0.81472   0.71030 
H          H       0.18524   0.06721   0.71034 
H          H       0.38408   0.53929   0.93508 
H          H       0.45978   0.84318   0.93553 
H          H       0.15682   0.61658   0.93554 
H          H       0.05088   0.87296   0.60191 
H          H       0.12723   0.17807   0.60184 
H          H       0.82206   0.94914   0.60198 
H          H       0.71740   0.20598   0.76906 
H          H       0.79406   0.51146   0.76896 
H          H       0.48858   0.28248   0.76850 
H          H       0.50406   0.68771   0.94377 
H          H       0.31189   0.81584   0.94616 
H          H       0.18412   0.49601   0.94604 
H          H       0.17094   0.02134   0.61058 
H          H       0.97886   0.14976   0.61065 
H          H       0.85043   0.82910   0.61059 
H          H       0.83745   0.35439   0.77747 
H          H       0.64563   0.48307   0.77724 
H          H       0.51690   0.16243   0.77734 
H          H       0.58591   0.68557   0.90498 
H          H       0.31307   0.89882   0.90635 
H          H       0.10109   0.41418   0.90638 
H          H       0.25275   0.01912   0.57169 
H          H       0.98110   0.23380   0.57175 
H          H       0.76642   0.74729   0.57167 
H          H       0.91917   0.35213   0.73835 
H          H       0.64788   0.56710   0.73830 
H          H       0.43288   0.08061   0.73846 
H          H       0.59785   0.64575   0.94575 
H          H       0.35343   0.95137   0.94591 
H          H       0.04857   0.40203   0.94595 
H          H       0.26466   0.97925   0.61239 
H          H       0.02096   0.28557   0.61247 
H          H       0.71463   0.73536   0.61238 
H          H       0.93121   0.31238   0.77911 
H          H       0.68763   0.61884   0.77912 
H          H       0.38111   0.06871   0.77916 
H          H       0.58913   0.69231   0.97647 
H          H       0.30754   0.89649   0.97798 
H          H       0.10345   0.41102   0.97802 
H          H       0.25604   0.02584   0.64318 
H          H       0.97436   0.23035   0.64324 
H          H       0.76985   0.74399   0.64317 
H          H       0.92261   0.35902   0.80982 
H          H       0.64099   0.56356   0.80978 
H          H       0.43633   0.07735   0.80995 
H          H       0.39610   0.28950   0.86963 
H          H       0.71112   0.10797   0.87033 
H          H       0.89237   0.60353   0.87038 
H          H       0.06298   0.62284   0.53726 
H          H       0.37711   0.44012   0.53619 
H          H       0.55993   0.93707   0.53730 
H          H       0.72964   0.95621   0.70302 
H          H       0.04382   0.77346   0.70303 
H          H       0.22657   0.27034   0.70288 
H          H       0.39269   0.34318   0.85290 
H          H       0.65777   0.05101   0.85250 
H          H       0.94927   0.60702   0.85249 
H          H       0.05951   0.67641   0.52012 
H          H       0.32346   0.38301   0.51948 
H          H       0.61698   0.94056   0.52019 
H          H       0.72618   0.00985   0.68625 
H          H       0.99018   0.71637   0.68626 
H          H       0.28367   0.27379   0.68616 
H          H       0.38772   0.32397   0.92139 
H          H       0.67623   0.06431   0.92129 
H          H       0.93603   0.61220   0.92129 
H          H       0.05458   0.65754   0.58874 
H          H       0.34274   0.39726   0.58797 
H          H       0.60297   0.94539   0.58881 
H          H       0.72117   0.99064   0.75475 
H          H       0.00938   0.73057   0.75477 
H          H       0.26944   0.27881   0.75465 
H          H       0.44778   0.70581   0.90534 
H          H       0.29340   0.74149   0.90634 
H          H       0.25831   0.55190   0.90556 
H          H       0.11471   0.03934   0.57170 
H          H       0.96082   0.07551   0.57178 
H          H       0.92465   0.88537   0.57167 
H          H       0.78126   0.37240   0.73880 
H          H       0.62767   0.40890   0.73848 
H          H       0.59111   0.21862   0.73846 
H          H       0.36877   0.60703   0.94337 
H          H       0.39169   0.76060   0.94511 
H          H       0.23941   0.63100   0.94511 
H          H       0.03569   0.94084   0.61033 
H          H       0.05936   0.09500   0.61030 
H          H       0.90515   0.96435   0.61041 
H          H       0.70218   0.27386   0.77731 
H          H       0.72619   0.42836   0.77710 
H          H       0.57165   0.29768   0.77704 
H          H       0.54530   0.28320   0.88162 
H          H       0.71705   0.26300   0.88333 
H          H       0.73716   0.45485   0.88256 
H          H       0.21198   0.61682   0.54932 
H          H       0.38322   0.59524   0.54826 
H          H       0.40492   0.78802   0.54941 
H          H       0.87868   0.95016   0.71507 
H          H       0.04986   0.92856   0.71505 
H          H       0.07144   0.12131   0.71503 
H          H       0.60844   0.38427   0.83928 
H          H       0.61647   0.22521   0.83966 
H          H       0.77469   0.39152   0.83998 
H          H       0.27533   0.71787   0.50670 
H          H       0.28204   0.55743   0.50601 
H          H       0.44260   0.72480   0.50628 
H          H       0.94196   0.05126   0.67253 
H          H       0.94876   0.89072   0.67250 
H          H       0.10926   0.05803   0.67250 
