data_crystal
 
_cell_length_a    30.53510
_cell_length_b    32.44730
_cell_length_c    25.49400
_cell_angle_alpha 90.59960
_cell_angle_beta  91.95910
_cell_angle_gamma 117.74800
 
_space_group_name_Hall 'P 1'
_space_group_name_H-M_alt  'P 1'
 
loop_
_symmetry_equiv_pos_as_xyz
 'x,y,z' 
 
loop_
_atom_site_label
_atom_site_type_symbol
_atom_site_fract_x
_atom_site_fract_y
_atom_site_fract_z
C          C       0.45156   0.50706   0.41510 
C          C       0.49387   0.94326   0.40753 
C          C       0.05510   0.54855   0.40737 
C          C       0.11790   0.84052   0.08203 
C          C       0.16118   0.27710   0.07915 
C          C       0.72070   0.88147   0.07847 
C          C       0.78474   0.17388   0.24896 
C          C       0.82790   0.61065   0.24568 
C          C       0.38708   0.21458   0.24494 
C          C       0.44884   0.46306   0.44031 
C          C       0.53903   0.98454   0.43590 
C          C       0.01372   0.55275   0.43482 
C          C       0.11505   0.79652   0.10740 
C          C       0.20481   0.31778   0.10563 
C          C       0.67982   0.88463   0.10390 
C          C       0.78206   0.12987   0.27408 
C          C       0.87146   0.65145   0.27210 
C          C       0.34623   0.21774   0.27045 
C          C       0.52411   0.51221   0.43939 
C          C       0.48775   0.01125   0.43626 
C          C       0.98557   0.47448   0.43367 
C          C       0.19032   0.84573   0.10702 
C          C       0.15524   0.34336   0.10632 
C          C       0.65292   0.80921   0.10276 
C          C       0.85732   0.17906   0.27315 
C          C       0.82187   0.67701   0.27226 
C          C       0.31928   0.14232   0.26920 
C          C       0.50535   0.54246   0.41531 
C          C       0.45801   0.96152   0.40881 
C          C       0.03589   0.49424   0.40739 
C          C       0.17168   0.87594   0.08257 
C          C       0.12543   0.29501   0.08074 
C          C       0.70190   0.82761   0.07854 
C          C       0.83851   0.20930   0.24913 
C          C       0.79213   0.62855   0.24688 
C          C       0.36825   0.16072   0.24494 
C          C       0.48788   0.48335   0.48063 
C          C       0.51742   0.00264   0.47696 
C          C       0.99401   0.51221   0.47498 
C          C       0.15382   0.81683   0.14802 
C          C       0.18404   0.33515   0.14688 
C          C       0.66073   0.84548   0.14410 
C          C       0.82111   0.15015   0.31438 
C          C       0.85059   0.66898   0.31308 
C          C       0.32714   0.17855   0.31059 
C          C       0.46526   0.43920   0.40068 
C          C       0.56235   0.02661   0.39520 
C          C       0.97283   0.53548   0.39285 
C          C       0.13176   0.77272   0.06800 
C          C       0.22864   0.35914   0.06731 
C          C       0.63969   0.86863   0.06426 
C          C       0.79849   0.10608   0.23436 
C          C       0.89536   0.69267   0.23362 
C          C       0.30608   0.20179   0.23084 
C          C       0.51918   0.47540   0.39915 
C          C       0.52564   0.04409   0.39431 
C          C       0.95388   0.48097   0.39130 
C          C       0.18567   0.80896   0.06692 
C          C       0.19208   0.37632   0.06674 
C          C       0.62117   0.81457   0.06263 
C          C       0.85240   0.14229   0.23287 
C          C       0.85878   0.70984   0.23266 
C          C       0.28752   0.14773   0.22913 
C          C       0.47822   0.40235   0.41678 
C          C       0.59907   0.07621   0.41564 
C          C       0.92336   0.52385   0.41205 
C          C       0.14462   0.73585   0.08432 
C          C       0.26498   0.40873   0.08465 
C          C       0.59027   0.85665   0.08028 
C          C       0.81141   0.06919   0.25037 
C          C       0.93163   0.74233   0.25085 
C          C       0.25668   0.18983   0.24693 
C          C       0.45991   0.35396   0.40137 
C          C       0.64748   0.10723   0.40126 
C          C       0.89404   0.54303   0.39727 
C          C       0.12655   0.68757   0.06856 
C          C       0.31314   0.43916   0.06866 
C          C       0.56147   0.87620   0.06434 
C          C       0.79313   0.02084   0.23478 
C          C       0.97987   0.77274   0.23514 
C          C       0.22792   0.20945   0.23110 
C          C       0.49390   0.33825   0.39320 
C          C       0.66251   0.15678   0.39348 
C          C       0.84434   0.50996   0.38836 
C          C       0.16067   0.67203   0.06042 
C          C       0.32808   0.48845   0.05909 
C          C       0.51196   0.84329   0.05413 
C          C       0.82713   0.00520   0.22637 
C          C       0.99487   0.82203   0.22554 
C          C       0.17841   0.17659   0.22081 
C          C       0.54438   0.37274   0.39069 
C          C       0.62775   0.17239   0.39059 
C          C       0.82692   0.45924   0.38529 
C          C       0.21115   0.70661   0.05845 
C          C       0.29315   0.50383   0.05638 
C          C       0.49480   0.79263   0.05097 
C          C       0.87761   0.03971   0.22389 
C          C       0.95996   0.83742   0.22248 
C          C       0.16120   0.12594   0.21752 
C          C       0.56040   0.42295   0.39637 
C          C       0.57757   0.13813   0.39639 
C          C       0.85965   0.44130   0.39183 
C          C       0.22705   0.75674   0.06473 
C          C       0.24325   0.46956   0.06420 
C          C       0.52770   0.77505   0.05854 
C          C       0.89363   0.08989   0.22995 
C          C       0.91000   0.80314   0.22992 
C          C       0.19405   0.10829   0.22509 
C          C       0.52655   0.43519   0.41456 
C          C       0.56516   0.09184   0.41385 
C          C       0.90619   0.47403   0.40985 
C          C       0.19296   0.76876   0.08259 
C          C       0.23173   0.42384   0.08303 
C          C       0.57377   0.80809   0.07779 
C          C       0.85974   0.10205   0.24821 
C          C       0.89839   0.75743   0.24888 
C          C       0.24013   0.14127   0.24437 
C          C       0.41323   0.55893   0.43728 
C          C       0.44296   0.85264   0.43058 
C          C       0.14486   0.58683   0.43358 
C          C       0.07944   0.89238   0.10368 
C          C       0.10927   0.18626   0.09743 
C          C       0.81084   0.91972   0.10015 
C          C       0.74637   0.22567   0.27131 
C          C       0.77598   0.51988   0.26447 
C          C       0.47723   0.25278   0.26662 
C          C       0.44663   0.54336   0.44658 
C          C       0.45869   0.90141   0.44094 
C          C       0.09573   0.55380   0.44195 
C          C       0.11282   0.87685   0.11331 
C          C       0.12463   0.23481   0.10910 
C          C       0.76192   0.88636   0.10978 
C          C       0.77982   0.21015   0.28053 
C          C       0.79130   0.56849   0.27577 
C          C       0.42830   0.21942   0.27621 
C          C       0.49571   0.57529   0.44776 
C          C       0.42580   0.91873   0.44321 
C          C       0.07782   0.50345   0.44265 
C          C       0.16188   0.90880   0.11473 
C          C       0.09249   0.25168   0.11193 
C          C       0.74456   0.83721   0.11073 
C          C       0.82890   0.24211   0.28164 
C          C       0.75914   0.58535   0.27823 
C          C       0.41092   0.17026   0.27708 
C          C       0.51479   0.62522   0.44054 
C          C       0.37597   0.88743   0.43666 
C          C       0.10894   0.48472   0.43589 
C          C       0.18098   0.95871   0.10731 
C          C       0.04269   0.22100   0.10368 
C          C       0.77532   0.81813   0.10268 
C          C       0.84792   0.29202   0.27433 
C          C       0.70937   0.55462   0.26993 
C          C       0.44166   0.15118   0.26895 
C          C       0.48203   0.64250   0.43504 
C          C       0.35925   0.83771   0.42942 
C          C       0.15887   0.51755   0.42985 
C          C       0.14823   0.97597   0.10148 
C          C       0.02571   0.17140   0.09508 
C          C       0.82517   0.85078   0.09565 
C          C       0.81513   0.30925   0.26870 
C          C       0.69242   0.50500   0.26158 
C          C       0.49152   0.18382   0.26195 
C          C       0.43129   0.60959   0.43195 
C          C       0.39228   0.82011   0.42539 
C          C       0.17709   0.56841   0.42767 
C          C       0.09749   0.94304   0.09824 
C          C       0.05870   0.15374   0.09125 
C          C       0.84326   0.90161   0.09351 
C          C       0.76438   0.27631   0.26575 
C          C       0.72543   0.48733   0.25815 
C          C       0.50964   0.23466   0.25996 
C          C       0.56860   0.65910   0.43551 
C          C       0.34128   0.90652   0.43457 
C          C       0.08954   0.43094   0.43251 
C          C       0.23480   0.99256   0.10232 
C          C       0.00846   0.24066   0.10157 
C          C       0.75560   0.76428   0.09928 
C          C       0.90173   0.32598   0.26942 
C          C       0.67511   0.57424   0.26756 
C          C       0.42193   0.09733   0.26551 
C          C       0.40648   0.32093   0.39223 
C          C       0.68139   0.08784   0.39243 
C          C       0.91537   0.59676   0.38964 
C          C       0.07320   0.65451   0.05892 
C          C       0.34681   0.41940   0.06020 
C          C       0.58310   0.93001   0.05710 
C          C       0.73970   0.98781   0.22563 
C          C       0.01357   0.75297   0.22706 
C          C       0.24958   0.26329   0.22409 
C          C       0.37854   0.66351   0.34614 
C          C       0.33463   0.71057   0.34306 
C          C       0.28726   0.61945   0.34677 
C          C       0.04493   0.99690   0.01221 
C          C       0.00124   0.04418   0.00856 
C          C       0.95363   0.95302   0.01242 
C          C       0.71182   0.33023   0.17989 
C          C       0.66816   0.37752   0.17587 
C          C       0.62051   0.28633   0.17960 
C          C       0.37956   0.70891   0.33183 
C          C       0.28839   0.66545   0.33329 
C          C       0.33212   0.61794   0.33651 
C          C       0.04614   0.04233   0.49762 
C          C       0.95491   0.99910   0.49892 
C          C       0.99847   0.95139   0.00249 
C          C       0.71309   0.37566   0.16518 
C          C       0.62186   0.33244   0.16608 
C          C       0.66542   0.28471   0.17003 
O          O       0.41808   0.74625   0.32281 
O          O       0.25072   0.66629   0.32530 
O          O       0.33117   0.57918   0.33047 
O          O       0.08476   0.07960   0.48871 
O          O       0.91729   0.00007   0.49103 
O          O       0.99744   0.91256   0.49660 
O          O       0.75174   0.41293   0.15635 
O          O       0.58428   0.33342   0.15795 
O          O       0.66443   0.24589   0.16428 
C          C       0.41142   0.66552   0.38115 
C          C       0.33471   0.74326   0.37677 
C          C       0.25490   0.58754   0.38127 
C          C       0.07767   0.99883   0.04722 
C          C       0.00143   0.07713   0.04194 
C          C       0.92096   0.92097   0.04657 
C          C       0.74449   0.33217   0.21500 
C          C       0.66824   0.41051   0.20910 
C          C       0.58760   0.25416   0.21347 
N          N       0.39865   0.62670   0.41835 
N          N       0.37525   0.77043   0.41147 
N          N       0.22707   0.60107   0.41469 
N          N       0.06486   0.96010   0.08437 
N          N       0.04194   0.10428   0.07666 
N          N       0.89300   0.93446   0.07983 
N          N       0.73170   0.29336   0.25204 
N          N       0.70870   0.43781   0.24385 
N          N       0.55943   0.26755   0.24650 
C          C       0.61830   0.32633   0.43472 
C          C       0.67676   0.29426   0.43020 
C          C       0.70871   0.38519   0.43101 
C          C       0.28550   0.65938   0.09995 
C          C       0.34301   0.62629   0.09315 
C          C       0.37605   0.71742   0.09497 
C          C       0.95180   0.99262   0.26571 
C          C       0.00954   0.95977   0.25960 
C          C       0.04235   0.05086   0.26117 
C          C       0.62761   0.28595   0.44273 
C          C       0.71789   0.34402   0.43680 
C          C       0.65963   0.37580   0.44387 
C          C       0.29427   0.61855   0.10677 
C          C       0.38462   0.67578   0.09952 
C          C       0.32736   0.70857   0.10886 
C          C       0.96069   0.95190   0.27290 
C          C       0.05103   0.00931   0.26608 
C          C       0.99353   0.04189   0.27464 
O          O       0.59577   0.24675   0.45980 
O          O       0.75838   0.35108   0.44829 
O          O       0.65312   0.40795   0.46170 
O          O       0.26257   0.57966   0.12462 
O          O       0.42483   0.68217   0.11112 
O          O       0.32163   0.74088   0.12770 
O          O       0.92894   0.91295   0.29057 
O          O       0.09124   0.01583   0.27793 
O          O       0.98759   0.07418   0.29317 
C          C       0.57836   0.31866   0.40841 
C          C       0.68311   0.26113   0.40392 
C          C       0.73955   0.42595   0.40502 
C          C       0.24524   0.65236   0.07489 
C          C       0.34862   0.59276   0.06679 
C          C       0.40730   0.75858   0.06989 
C          C       0.91160   0.98542   0.24038 
C          C       0.01535   0.92633   0.23332 
C          C       0.07363   0.09199   0.23606 
N          N       0.57850   0.35719   0.37883 
N          N       0.64301   0.22174   0.37724 
N          N       0.77701   0.42724   0.37249 
N          N       0.24542   0.69134   0.04623 
N          N       0.30783   0.55276   0.04174 
N          N       0.44511   0.76039   0.03755 
N          N       0.91172   0.02427   0.21152 
N          N       0.97475   0.88640   0.20794 
N          N       0.11154   0.09377   0.20392 
H          H       0.43267   0.49930   0.37728 
H          H       0.50020   0.93286   0.36735 
H          H       0.06686   0.56620   0.36775 
H          H       0.09921   0.83277   0.04410 
H          H       0.16934   0.26733   0.04074 
H          H       0.73182   0.90032   0.04062 
H          H       0.76580   0.16616   0.21118 
H          H       0.83613   0.60070   0.20741 
H          H       0.39819   0.23347   0.20711 
H          H       0.41295   0.43827   0.45588 
H          H       0.56454   0.97330   0.45190 
H          H       0.02520   0.58932   0.45152 
H          H       0.07907   0.77170   0.12272 
H          H       0.22971   0.30651   0.12043 
H          H       0.69125   0.92055   0.11964 
H          H       0.74618   0.10504   0.28963 
H          H       0.89636   0.64027   0.28712 
H          H       0.35769   0.25365   0.28623 
H          H       0.56103   0.53390   0.45402 
H          H       0.46537   0.02620   0.45255 
H          H       0.96970   0.43680   0.44923 
H          H       0.22714   0.86744   0.12191 
H          H       0.13330   0.35798   0.12180 
H          H       0.63737   0.77224   0.11728 
H          H       0.89425   0.20075   0.28774 
H          H       0.79987   0.69167   0.28748 
H          H       0.30374   0.10533   0.28368 
H          H       0.52272   0.55883   0.37779 
H          H       0.44180   0.96167   0.36966 
H          H       0.03623   0.47858   0.36795 
H          H       0.18925   0.89227   0.04512 
H          H       0.10918   0.29693   0.04350 
H          H       0.70064   0.81020   0.04097 
H          H       0.85584   0.22568   0.21160 
H          H       0.77596   0.63030   0.20952 
H          H       0.36696   0.14334   0.20733 
H          H       0.48361   0.50336   0.01316 
H          H       0.49714   0.97737   0.00860 
H          H       0.01838   0.51609   0.00719 
H          H       0.14933   0.83681   0.18042 
H          H       0.16396   0.30990   0.17868 
H          H       0.68496   0.84940   0.17654 
H          H       0.81686   0.17012   0.34695 
H          H       0.83045   0.64385   0.34495 
H          H       0.35138   0.18243   0.34301 
H          H       0.49402   0.45758   0.00283 
H          H       0.54303   0.03419   0.49968 
H          H       0.96219   0.50650   0.49698 
H          H       0.15985   0.79106   0.17039 
H          H       0.20953   0.36658   0.16995 
H          H       0.62893   0.83962   0.16635 
H          H       0.82728   0.12436   0.33652 
H          H       0.87602   0.70049   0.33608 
H          H       0.29536   0.17269   0.33288 
H          H       0.44503   0.43011   0.36368 
H          H       0.57119   0.01758   0.35554 
H          H       0.98317   0.55390   0.35352 
H          H       0.11182   0.76371   0.03082 
H          H       0.23817   0.34913   0.02985 
H          H       0.65110   0.88886   0.02727 
H          H       0.77827   0.09706   0.19735 
H          H       0.90500   0.68254   0.19631 
H          H       0.31747   0.22206   0.19387 
H          H       0.53541   0.49112   0.36101 
H          H       0.51149   0.04522   0.35419 
H          H       0.95312   0.46612   0.35106 
H          H       0.20218   0.82469   0.02890 
H          H       0.17643   0.37735   0.02873 
H          H       0.62054   0.79836   0.02447 
H          H       0.86864   0.15803   0.19475 
H          H       0.84322   0.71074   0.19454 
H          H       0.28686   0.13155   0.19094 
H          H       0.48131   0.30040   0.38416 
H          H       0.70032   0.18236   0.38470 
H          H       0.81984   0.52354   0.37946 
H          H       0.14822   0.63428   0.05096 
H          H       0.36566   0.51373   0.04902 
H          H       0.48762   0.85689   0.04453 
H          H       0.81455   0.96738   0.21709 
H          H       0.03252   0.84733   0.21572 
H          H       0.15411   0.19025   0.21122 
C          C       0.61041   0.46235   0.38005 
C          C       0.53804   0.14870   0.38046 
C          C       0.84788   0.38999   0.37981 
C          C       0.27733   0.79639   0.04961 
C          C       0.20305   0.47941   0.04908 
C          C       0.51656   0.72393   0.04648 
C          C       0.94375   0.12940   0.21412 
C          C       0.86990   0.81299   0.21435 
C          C       0.18284   0.05715   0.21302 
C          C       0.36105   0.52158   0.42557 
C          C       0.48012   0.83793   0.41727 
C          C       0.16059   0.63954   0.42395 
C          C       0.02731   0.85500   0.09180 
C          C       0.14670   0.17187   0.08417 
C          C       0.82605   0.97228   0.09025 
C          C       0.69413   0.18826   0.26003 
C          C       0.81345   0.50540   0.25178 
C          C       0.49247   0.30536   0.25683 
H          H       0.49632   0.68117   0.43007 
H          H       0.32067   0.81339   0.42405 
H          H       0.18291   0.50304   0.42400 
H          H       0.16254   0.01463   0.09638 
H          H       0.98722   0.14742   0.08864 
H          H       0.84904   0.83617   0.08903 
H          H       0.82941   0.34789   0.26356 
H          H       0.65395   0.48100   0.25504 
H          H       0.51536   0.16919   0.25528 
H          H       0.57701   0.67682   0.39592 
H          H       0.32311   0.89838   0.39524 
H          H       0.09833   0.42166   0.39310 
H          H       0.24326   0.01011   0.06263 
H          H       0.99127   0.23384   0.06177 
H          H       0.76349   0.75479   0.05951 
H          H       0.91019   0.34369   0.22981 
H          H       0.65794   0.56727   0.22773 
H          H       0.42981   0.08785   0.22575 
H          H       0.58898   0.63924   0.44011 
H          H       0.36056   0.94653   0.44108 
H          H       0.04942   0.41031   0.43810 
H          H       0.25516   0.97270   0.10714 
H          H       0.02792   0.28048   0.10943 
H          H       0.71559   0.74381   0.10584 
H          H       0.92216   0.30618   0.27412 
H          H       0.69454   0.61409   0.27525 
H          H       0.38192   0.07687   0.27209 
H          H       0.58110   0.68755   0.46670 
H          H       0.31319   0.88878   0.46594 
H          H       0.10655   0.41977   0.46392 
H          H       0.24729   0.02113   0.13336 
H          H       0.97960   0.22227   0.13204 
H          H       0.77314   0.75309   0.13004 
H          H       0.91411   0.35444   0.30060 
H          H       0.64623   0.55594   0.29802 
H          H       0.43946   0.08612   0.29628 
H          H       0.39829   0.28366   0.38125 
H          H       0.71864   0.11758   0.38244 
H          H       0.88675   0.60587   0.37964 
H          H       0.06517   0.61734   0.04770 
H          H       0.38386   0.44876   0.04893 
H          H       0.55480   0.93927   0.04598 
H          H       0.73153   0.95055   0.21459 
H          H       0.05069   0.78233   0.21603 
H          H       0.22128   0.27262   0.21330 
H          H       0.39408   0.33552   0.35944 
H          H       0.66781   0.06136   0.35912 
H          H       0.94235   0.60944   0.35683 
H          H       0.06098   0.66927   0.02612 
H          H       0.33254   0.39190   0.02790 
H          H       0.61096   0.94298   0.02518 
H          H       0.72728   0.00242   0.19289 
H          H       0.99950   0.72549   0.19475 
H          H       0.27732   0.27632   0.19204 
H          H       0.38602   0.31871   0.42885 
H          H       0.68336   0.06926   0.42890 
H          H       0.93391   0.61624   0.42662 
H          H       0.05245   0.65199   0.09540 
H          H       0.34951   0.40198   0.09725 
H          H       0.60062   0.94913   0.09459 
H          H       0.71924   0.98554   0.26227 
H          H       0.01604   0.73552   0.26421 
H          H       0.26726   0.28229   0.26158 
H          H       0.44464   0.69990   0.38788 
H          H       0.30088   0.74261   0.38500 
H          H       0.25612   0.55490   0.39093 
H          H       0.11088   0.03306   0.05388 
H          H       0.96768   0.07670   0.04995 
H          H       0.92199   0.88823   0.05613 
H          H       0.77764   0.36643   0.22178 
H          H       0.63446   0.41008   0.21693 
H          H       0.58856   0.22138   0.22305 
H          H       0.36236   0.60645   0.43040 
H          H       0.39595   0.75470   0.42289 
H          H       0.24265   0.63766   0.42544 
H          H       0.02856   0.93987   0.09643 
H          H       0.06258   0.08851   0.08819 
H          H       0.90847   0.97104   0.09055 
H          H       0.69540   0.27308   0.26406 
H          H       0.72932   0.42209   0.25560 
H          H       0.57486   0.30410   0.25736 
H          H       0.54856   0.28187   0.40235 
H          H       0.71950   0.26784   0.39562 
H          H       0.73189   0.45554   0.40151 
H          H       0.21498   0.61578   0.06906 
H          H       0.38477   0.59914   0.05775 
H          H       0.40022   0.78863   0.06762 
H          H       0.88144   0.94878   0.23454 
H          H       0.05158   0.93279   0.22451 
H          H       0.06646   0.12196   0.23350 
H          H       0.61081   0.38142   0.35942 
H          H       0.61833   0.22949   0.35836 
H          H       0.76737   0.39818   0.34653 
H          H       0.27764   0.71576   0.02680 
H          H       0.28248   0.55993   0.02353 
H          H       0.43598   0.73145   0.01159 
H          H       0.94390   0.04859   0.19196 
H          H       0.94950   0.89362   0.18954 
H          H       0.10245   0.06485   0.17794 
H          H       0.35325   0.52326   0.38301 
H          H       0.33589   0.52794   0.45024 
H          H       0.35374   0.48417   0.43439 
H          H       0.20546   0.51018   0.07207 
H          H       0.16654   0.44738   0.05668 
H          H       0.20579   0.48796   0.00624 
H          H       0.18425   0.20234   0.09152 
H          H       0.14363   0.16162   0.04170 
H          H       0.14145   0.14081   0.10899 
H          H       0.20876   0.05826   0.18282 
H          H       0.14588   0.03317   0.19734 
H          H       0.18718   0.04023   0.24965 
H          H       0.52236   0.32931   0.28408 
H          H       0.46181   0.31223   0.26372 
H          H       0.50481   0.31513   0.21516 
H          H       0.63885   0.46049   0.40348 
H          H       0.61521   0.49919   0.38597 
H          H       0.61580   0.45803   0.33746 
H          H       0.87220   0.84380   0.23718 
H          H       0.83335   0.78098   0.22182 
H          H       0.87287   0.82150   0.17148 
H          H       0.54256   0.72507   0.01637 
H          H       0.47965   0.69996   0.03068 
H          H       0.52082   0.70700   0.08314 
H          H       0.85602   0.99629   0.11739 
H          H       0.79540   0.97916   0.09725 
H          H       0.83825   0.98196   0.04854 
H          H       0.51777   0.86847   0.42387 
H          H       0.47653   0.82704   0.37496 
H          H       0.47511   0.80722   0.44257 
H          H       0.53971   0.17863   0.40447 
H          H       0.50125   0.11646   0.38605 
H          H       0.54234   0.15891   0.33800 
H          H       0.85096   0.53591   0.25920 
H          H       0.81056   0.49493   0.20939 
H          H       0.80806   0.47446   0.27692 
H          H       0.87326   0.39076   0.34909 
H          H       0.81059   0.36608   0.36491 
H          H       0.85270   0.37319   0.41626 
H          H       0.68603   0.18975   0.21752 
H          H       0.66913   0.19474   0.28486 
H          H       0.68688   0.15090   0.26898 
H          H       0.19023   0.66320   0.45163 
H          H       0.13002   0.64665   0.43037 
H          H       0.17345   0.64949   0.38248 
H          H       0.01962   0.85668   0.04921 
H          H       0.00206   0.86132   0.11635 
H          H       0.02001   0.81760   0.10067 
H          H       0.97197   0.12742   0.23784 
H          H       0.94847   0.16619   0.22016 
H          H       0.94952   0.12535   0.17156 
H          H       0.30525   0.79440   0.07388 
H          H       0.28188   0.83312   0.05553 
H          H       0.28371   0.79253   0.00719 
C          C       0.45156   0.50706   0.91510 
C          C       0.49387   0.94326   0.90753 
C          C       0.05510   0.54855   0.90737 
C          C       0.11790   0.84052   0.58203 
C          C       0.16118   0.27710   0.57915 
C          C       0.72070   0.88147   0.57847 
C          C       0.78474   0.17388   0.74896 
C          C       0.82790   0.61065   0.74569 
C          C       0.38708   0.21458   0.74495 
C          C       0.44884   0.46306   0.94031 
C          C       0.53903   0.98454   0.93590 
C          C       0.01372   0.55275   0.93482 
C          C       0.11505   0.79652   0.60740 
C          C       0.20481   0.31778   0.60563 
C          C       0.67982   0.88463   0.60391 
C          C       0.78206   0.12987   0.77408 
C          C       0.87146   0.65145   0.77210 
C          C       0.34623   0.21774   0.77045 
C          C       0.52411   0.51221   0.93939 
C          C       0.48775   0.01125   0.93626 
C          C       0.98557   0.47448   0.93367 
C          C       0.19032   0.84573   0.60702 
C          C       0.15524   0.34336   0.60632 
C          C       0.65292   0.80921   0.60276 
C          C       0.85732   0.17906   0.77315 
C          C       0.82187   0.67701   0.77226 
C          C       0.31928   0.14232   0.76920 
C          C       0.50535   0.54246   0.91531 
C          C       0.45801   0.96152   0.90881 
C          C       0.03589   0.49424   0.90739 
C          C       0.17168   0.87594   0.58257 
C          C       0.12543   0.29501   0.58074 
C          C       0.70190   0.82761   0.57854 
C          C       0.83851   0.20930   0.74913 
C          C       0.79213   0.62855   0.74688 
C          C       0.36825   0.16072   0.74494 
C          C       0.48788   0.48335   0.98062 
C          C       0.51742   0.00264   0.97696 
C          C       0.99401   0.51221   0.97498 
C          C       0.15382   0.81683   0.64802 
C          C       0.18404   0.33515   0.64688 
C          C       0.66073   0.84548   0.64410 
C          C       0.82111   0.15015   0.81437 
C          C       0.85059   0.66898   0.81308 
C          C       0.32714   0.17855   0.81059 
C          C       0.46526   0.43920   0.90068 
C          C       0.56235   0.02661   0.89520 
C          C       0.97283   0.53548   0.89285 
C          C       0.13176   0.77272   0.56800 
C          C       0.22864   0.35914   0.56732 
C          C       0.63969   0.86863   0.56426 
C          C       0.79849   0.10608   0.73436 
C          C       0.89536   0.69267   0.73362 
C          C       0.30608   0.20179   0.73084 
C          C       0.51918   0.47540   0.89915 
C          C       0.52564   0.04409   0.89430 
C          C       0.95388   0.48097   0.89129 
C          C       0.18567   0.80896   0.56693 
C          C       0.19208   0.37632   0.56673 
C          C       0.62117   0.81457   0.56263 
C          C       0.85240   0.14229   0.73287 
C          C       0.85878   0.70984   0.73266 
C          C       0.28752   0.14773   0.72913 
C          C       0.47822   0.40235   0.91678 
C          C       0.59907   0.07621   0.91564 
C          C       0.92336   0.52385   0.91205 
C          C       0.14462   0.73585   0.58432 
C          C       0.26498   0.40873   0.58465 
C          C       0.59027   0.85665   0.58028 
C          C       0.81141   0.06919   0.75037 
C          C       0.93163   0.74233   0.75085 
C          C       0.25668   0.18983   0.74693 
C          C       0.45991   0.35396   0.90138 
C          C       0.64748   0.10723   0.90126 
C          C       0.89404   0.54303   0.89727 
C          C       0.12655   0.68757   0.56856 
C          C       0.31314   0.43916   0.56866 
C          C       0.56147   0.87620   0.56434 
C          C       0.79313   0.02084   0.73478 
C          C       0.97987   0.77274   0.73514 
C          C       0.22792   0.20945   0.73110 
C          C       0.49390   0.33825   0.89320 
C          C       0.66251   0.15678   0.89347 
C          C       0.84434   0.50996   0.88836 
C          C       0.16067   0.67203   0.56042 
C          C       0.32808   0.48845   0.55909 
C          C       0.51196   0.84329   0.55414 
C          C       0.82713   0.00520   0.72637 
C          C       0.99487   0.82203   0.72554 
C          C       0.17841   0.17659   0.72081 
C          C       0.54438   0.37274   0.89069 
C          C       0.62775   0.17239   0.89058 
C          C       0.82692   0.45924   0.88530 
C          C       0.21115   0.70661   0.55844 
C          C       0.29315   0.50383   0.55637 
C          C       0.49480   0.79263   0.55097 
C          C       0.87761   0.03971   0.72389 
C          C       0.95996   0.83742   0.72248 
C          C       0.16120   0.12594   0.71752 
C          C       0.56040   0.42295   0.89637 
C          C       0.57757   0.13813   0.89639 
C          C       0.85965   0.44130   0.89184 
C          C       0.22705   0.75674   0.56473 
C          C       0.24325   0.46956   0.56420 
C          C       0.52770   0.77505   0.55854 
C          C       0.89363   0.08989   0.72995 
C          C       0.91000   0.80314   0.72992 
C          C       0.19405   0.10829   0.72510 
C          C       0.52655   0.43519   0.91456 
C          C       0.56516   0.09184   0.91385 
C          C       0.90619   0.47403   0.90985 
C          C       0.19296   0.76876   0.58259 
C          C       0.23173   0.42384   0.58303 
C          C       0.57377   0.80809   0.57779 
C          C       0.85974   0.10205   0.74821 
C          C       0.89839   0.75743   0.74888 
C          C       0.24013   0.14127   0.74436 
C          C       0.41323   0.55893   0.93727 
C          C       0.44296   0.85264   0.93058 
C          C       0.14486   0.58683   0.93358 
C          C       0.07944   0.89238   0.60369 
C          C       0.10927   0.18626   0.59743 
C          C       0.81084   0.91972   0.60015 
C          C       0.74637   0.22567   0.77131 
C          C       0.77598   0.51988   0.76447 
C          C       0.47723   0.25278   0.76662 
C          C       0.44663   0.54336   0.94658 
C          C       0.45869   0.90141   0.94093 
C          C       0.09573   0.55380   0.94195 
C          C       0.11282   0.87685   0.61331 
C          C       0.12463   0.23481   0.60910 
C          C       0.76192   0.88636   0.60979 
C          C       0.77982   0.21015   0.78053 
C          C       0.79130   0.56849   0.77577 
C          C       0.42830   0.21942   0.77621 
C          C       0.49571   0.57529   0.94776 
C          C       0.42580   0.91873   0.94321 
C          C       0.07782   0.50345   0.94265 
C          C       0.16188   0.90880   0.61473 
C          C       0.09249   0.25168   0.61193 
C          C       0.74456   0.83721   0.61073 
C          C       0.82890   0.24211   0.78164 
C          C       0.75914   0.58535   0.77823 
C          C       0.41092   0.17026   0.77708 
C          C       0.51479   0.62522   0.94053 
C          C       0.37597   0.88743   0.93665 
C          C       0.10894   0.48472   0.93589 
C          C       0.18098   0.95871   0.60732 
C          C       0.04269   0.22100   0.60369 
C          C       0.77532   0.81813   0.60269 
C          C       0.84792   0.29202   0.77433 
C          C       0.70937   0.55462   0.76993 
C          C       0.44166   0.15118   0.76895 
C          C       0.48203   0.64250   0.93504 
C          C       0.35925   0.83771   0.92942 
C          C       0.15887   0.51755   0.92985 
C          C       0.14823   0.97597   0.60148 
C          C       0.02571   0.17140   0.59508 
C          C       0.82517   0.85078   0.59565 
C          C       0.81513   0.30925   0.76870 
C          C       0.69242   0.50500   0.76157 
C          C       0.49152   0.18382   0.76195 
C          C       0.43129   0.60959   0.93195 
C          C       0.39228   0.82011   0.92539 
C          C       0.17709   0.56841   0.92767 
C          C       0.09749   0.94304   0.59823 
C          C       0.05870   0.15374   0.59125 
C          C       0.84326   0.90161   0.59351 
C          C       0.76438   0.27631   0.76575 
C          C       0.72543   0.48733   0.75815 
C          C       0.50964   0.23466   0.75996 
C          C       0.56860   0.65910   0.93551 
C          C       0.34128   0.90652   0.93458 
C          C       0.08954   0.43094   0.93251 
C          C       0.23480   0.99256   0.60232 
C          C       0.00846   0.24066   0.60157 
C          C       0.75560   0.76428   0.59928 
C          C       0.90173   0.32598   0.76942 
C          C       0.67511   0.57424   0.76756 
C          C       0.42193   0.09733   0.76551 
C          C       0.40648   0.32093   0.89223 
C          C       0.68139   0.08784   0.89243 
C          C       0.91537   0.59676   0.88964 
C          C       0.07320   0.65451   0.55892 
C          C       0.34681   0.41940   0.56020 
C          C       0.58310   0.93001   0.55710 
C          C       0.73970   0.98781   0.72563 
C          C       0.01357   0.75297   0.72706 
C          C       0.24958   0.26329   0.72409 
C          C       0.37854   0.66351   0.84614 
C          C       0.33463   0.71057   0.84306 
C          C       0.28726   0.61945   0.84677 
C          C       0.04493   0.99690   0.51221 
C          C       0.00124   0.04418   0.50855 
C          C       0.95363   0.95302   0.51241 
C          C       0.71182   0.33023   0.67989 
C          C       0.66816   0.37752   0.67587 
C          C       0.62051   0.28633   0.67960 
C          C       0.37956   0.70891   0.83184 
C          C       0.28839   0.66545   0.83329 
C          C       0.33212   0.61794   0.83651 
C          C       0.04614   0.04233   0.99762 
C          C       0.95491   0.99910   0.99891 
C          C       0.99847   0.95139   0.50249 
C          C       0.71309   0.37566   0.66519 
C          C       0.62186   0.33244   0.66607 
C          C       0.66542   0.28471   0.67003 
O          O       0.41808   0.74625   0.82281 
O          O       0.25072   0.66629   0.82530 
O          O       0.33117   0.57918   0.83046 
O          O       0.08476   0.07960   0.98871 
O          O       0.91729   0.00007   0.99103 
O          O       0.99744   0.91256   0.99660 
O          O       0.75174   0.41293   0.65635 
O          O       0.58428   0.33342   0.65795 
O          O       0.66443   0.24589   0.66428 
C          C       0.41142   0.66552   0.88115 
C          C       0.33471   0.74326   0.87677 
C          C       0.25490   0.58754   0.88127 
C          C       0.07767   0.99883   0.54722 
C          C       0.00143   0.07713   0.54194 
C          C       0.92096   0.92097   0.54658 
C          C       0.74449   0.33217   0.71500 
C          C       0.66824   0.41051   0.70909 
C          C       0.58760   0.25416   0.71347 
N          N       0.39865   0.62670   0.91834 
N          N       0.37525   0.77043   0.91147 
N          N       0.22707   0.60107   0.91468 
N          N       0.06486   0.96010   0.58437 
N          N       0.04194   0.10428   0.57666 
N          N       0.89300   0.93446   0.57983 
N          N       0.73170   0.29336   0.75203 
N          N       0.70870   0.43781   0.74384 
N          N       0.55943   0.26755   0.74650 
C          C       0.61830   0.32633   0.93472 
C          C       0.67676   0.29426   0.93020 
C          C       0.70871   0.38519   0.93101 
C          C       0.28550   0.65938   0.59994 
C          C       0.34301   0.62629   0.59314 
C          C       0.37605   0.71742   0.59497 
C          C       0.95180   0.99262   0.76571 
C          C       0.00954   0.95977   0.75960 
C          C       0.04235   0.05086   0.76117 
C          C       0.62761   0.28595   0.94274 
C          C       0.71789   0.34402   0.93680 
C          C       0.65963   0.37580   0.94388 
C          C       0.29427   0.61855   0.60677 
C          C       0.38462   0.67578   0.59952 
C          C       0.32736   0.70857   0.60886 
C          C       0.96069   0.95190   0.77290 
C          C       0.05103   0.00931   0.76608 
C          C       0.99353   0.04189   0.77464 
O          O       0.59577   0.24675   0.95980 
O          O       0.75838   0.35108   0.94829 
O          O       0.65312   0.40795   0.96170 
O          O       0.26257   0.57966   0.62462 
O          O       0.42483   0.68217   0.61111 
O          O       0.32163   0.74088   0.62770 
O          O       0.92894   0.91295   0.79057 
O          O       0.09124   0.01583   0.77794 
O          O       0.98759   0.07418   0.79317 
C          C       0.57836   0.31866   0.90841 
C          C       0.68311   0.26113   0.90392 
C          C       0.73955   0.42595   0.90502 
C          C       0.24524   0.65236   0.57489 
C          C       0.34862   0.59276   0.56679 
C          C       0.40730   0.75858   0.56988 
C          C       0.91160   0.98542   0.74038 
C          C       0.01535   0.92633   0.73332 
C          C       0.07363   0.09199   0.73606 
N          N       0.57850   0.35719   0.87883 
N          N       0.64301   0.22174   0.87725 
N          N       0.77701   0.42724   0.87249 
N          N       0.24542   0.69134   0.54623 
N          N       0.30783   0.55276   0.54174 
N          N       0.44511   0.76039   0.53755 
N          N       0.91172   0.02427   0.71152 
N          N       0.97475   0.88640   0.70795 
N          N       0.11154   0.09377   0.70392 
H          H       0.43267   0.49930   0.87728 
H          H       0.50020   0.93286   0.86735 
H          H       0.06686   0.56620   0.86776 
H          H       0.09921   0.83277   0.54409 
H          H       0.16934   0.26733   0.54074 
H          H       0.73182   0.90032   0.54062 
H          H       0.76580   0.16616   0.71118 
H          H       0.83613   0.60070   0.70741 
H          H       0.39819   0.23347   0.70711 
H          H       0.41295   0.43827   0.95588 
H          H       0.56454   0.97330   0.95190 
H          H       0.02520   0.58932   0.95152 
H          H       0.07907   0.77170   0.62272 
H          H       0.22971   0.30651   0.62043 
H          H       0.69125   0.92055   0.61964 
H          H       0.74618   0.10504   0.78963 
H          H       0.89636   0.64027   0.78712 
H          H       0.35769   0.25365   0.78623 
H          H       0.56103   0.53390   0.95402 
H          H       0.46537   0.02620   0.95255 
H          H       0.96970   0.43680   0.94923 
H          H       0.22714   0.86744   0.62191 
H          H       0.13330   0.35798   0.62180 
H          H       0.63737   0.77224   0.61728 
H          H       0.89425   0.20075   0.78774 
H          H       0.79987   0.69167   0.78748 
H          H       0.30374   0.10533   0.78368 
H          H       0.52272   0.55883   0.87779 
H          H       0.44180   0.96167   0.86966 
H          H       0.03623   0.47858   0.86795 
H          H       0.18925   0.89227   0.54513 
H          H       0.10918   0.29693   0.54350 
H          H       0.70064   0.81020   0.54096 
H          H       0.85584   0.22568   0.71160 
H          H       0.77596   0.63030   0.70952 
H          H       0.36696   0.14334   0.70733 
H          H       0.48361   0.50336   0.51316 
H          H       0.49714   0.97737   0.50860 
H          H       0.01838   0.51609   0.50719 
H          H       0.14933   0.83681   0.68042 
H          H       0.16396   0.30990   0.67868 
H          H       0.68496   0.84940   0.67654 
H          H       0.81686   0.17012   0.84696 
H          H       0.83045   0.64385   0.84495 
H          H       0.35138   0.18243   0.84301 
H          H       0.49402   0.45758   0.50283 
H          H       0.54303   0.03419   0.99967 
H          H       0.96219   0.50650   0.99698 
H          H       0.15985   0.79106   0.67039 
H          H       0.20953   0.36658   0.66996 
H          H       0.62893   0.83962   0.66635 
H          H       0.82728   0.12436   0.83652 
H          H       0.87602   0.70049   0.83608 
H          H       0.29536   0.17269   0.83289 
H          H       0.44503   0.43011   0.86367 
H          H       0.57119   0.01758   0.85554 
H          H       0.98317   0.55390   0.85352 
H          H       0.11182   0.76371   0.53082 
H          H       0.23817   0.34913   0.52985 
H          H       0.65110   0.88886   0.52727 
H          H       0.77827   0.09706   0.69735 
H          H       0.90500   0.68254   0.69630 
H          H       0.31747   0.22206   0.69388 
H          H       0.53541   0.49112   0.86101 
H          H       0.51149   0.04522   0.85419 
H          H       0.95312   0.46612   0.85106 
H          H       0.20218   0.82469   0.52890 
H          H       0.17643   0.37735   0.52873 
H          H       0.62054   0.79836   0.52446 
H          H       0.86864   0.15803   0.69475 
H          H       0.84322   0.71074   0.69454 
H          H       0.28686   0.13155   0.69094 
H          H       0.48131   0.30040   0.88416 
H          H       0.70032   0.18236   0.88470 
H          H       0.81984   0.52354   0.87947 
H          H       0.14822   0.63428   0.55096 
H          H       0.36566   0.51373   0.54902 
H          H       0.48762   0.85689   0.54453 
H          H       0.81455   0.96738   0.71709 
H          H       0.03252   0.84733   0.71572 
H          H       0.15411   0.19025   0.71123 
C          C       0.61041   0.46235   0.88005 
C          C       0.53804   0.14870   0.88046 
C          C       0.84788   0.38999   0.87981 
C          C       0.27733   0.79639   0.54961 
C          C       0.20305   0.47941   0.54907 
C          C       0.51656   0.72393   0.54648 
C          C       0.94375   0.12940   0.71412 
C          C       0.86990   0.81299   0.71435 
C          C       0.18284   0.05715   0.71302 
C          C       0.36105   0.52158   0.92557 
C          C       0.48012   0.83793   0.91727 
C          C       0.16059   0.63954   0.92395 
C          C       0.02731   0.85500   0.59181 
C          C       0.14670   0.17187   0.58417 
C          C       0.82605   0.97228   0.59025 
C          C       0.69413   0.18826   0.76003 
C          C       0.81345   0.50540   0.75179 
C          C       0.49247   0.30536   0.75683 
H          H       0.49632   0.68117   0.93007 
H          H       0.32067   0.81339   0.92405 
H          H       0.18291   0.50304   0.92400 
H          H       0.16254   0.01463   0.59638 
H          H       0.98722   0.14742   0.58864 
H          H       0.84904   0.83617   0.58903 
H          H       0.82941   0.34789   0.76356 
H          H       0.65395   0.48100   0.75504 
H          H       0.51536   0.16919   0.75528 
H          H       0.57701   0.67682   0.89592 
H          H       0.32311   0.89838   0.89524 
H          H       0.09833   0.42166   0.89310 
H          H       0.24326   0.01011   0.56263 
H          H       0.99127   0.23384   0.56177 
H          H       0.76349   0.75479   0.55951 
H          H       0.91019   0.34369   0.72981 
H          H       0.65794   0.56727   0.72773 
H          H       0.42981   0.08785   0.72575 
H          H       0.58898   0.63924   0.94011 
H          H       0.36056   0.94653   0.94108 
H          H       0.04942   0.41031   0.93810 
H          H       0.25516   0.97270   0.60714 
H          H       0.02792   0.28048   0.60943 
H          H       0.71559   0.74381   0.60584 
H          H       0.92216   0.30618   0.77412 
H          H       0.69454   0.61409   0.77524 
H          H       0.38192   0.07687   0.77209 
H          H       0.58110   0.68755   0.96670 
H          H       0.31319   0.88878   0.96594 
H          H       0.10655   0.41977   0.96392 
H          H       0.24729   0.02113   0.63336 
H          H       0.97960   0.22227   0.63204 
H          H       0.77314   0.75309   0.63005 
H          H       0.91411   0.35444   0.80060 
H          H       0.64623   0.55594   0.79802 
H          H       0.43946   0.08612   0.79628 
H          H       0.39829   0.28366   0.88125 
H          H       0.71864   0.11758   0.88244 
H          H       0.88675   0.60587   0.87965 
H          H       0.06517   0.61734   0.54770 
H          H       0.38386   0.44876   0.54892 
H          H       0.55480   0.93927   0.54597 
H          H       0.73153   0.95055   0.71459 
H          H       0.05069   0.78233   0.71603 
H          H       0.22128   0.27262   0.71330 
H          H       0.39408   0.33552   0.85944 
H          H       0.66781   0.06136   0.85912 
H          H       0.94235   0.60944   0.85683 
H          H       0.06098   0.66927   0.52613 
H          H       0.33254   0.39190   0.52790 
H          H       0.61096   0.94298   0.52519 
H          H       0.72728   0.00242   0.69288 
H          H       0.99950   0.72549   0.69475 
H          H       0.27732   0.27632   0.69205 
H          H       0.38602   0.31871   0.92885 
H          H       0.68336   0.06926   0.92890 
H          H       0.93391   0.61624   0.92662 
H          H       0.05245   0.65199   0.59540 
H          H       0.34951   0.40198   0.59725 
H          H       0.60062   0.94913   0.59459 
H          H       0.71924   0.98554   0.76227 
H          H       0.01604   0.73552   0.76421 
H          H       0.26726   0.28229   0.76158 
H          H       0.44464   0.69990   0.88788 
H          H       0.30088   0.74261   0.88500 
H          H       0.25612   0.55490   0.89093 
H          H       0.11088   0.03306   0.55388 
H          H       0.96768   0.07670   0.54995 
H          H       0.92199   0.88823   0.55613 
H          H       0.77764   0.36643   0.72178 
H          H       0.63446   0.41008   0.71693 
H          H       0.58856   0.22138   0.72305 
H          H       0.36236   0.60645   0.93040 
H          H       0.39595   0.75470   0.92288 
H          H       0.24265   0.63766   0.92544 
H          H       0.02856   0.93987   0.59643 
H          H       0.06258   0.08851   0.58819 
H          H       0.90847   0.97104   0.59055 
H          H       0.69540   0.27308   0.76406 
H          H       0.72932   0.42209   0.75560 
H          H       0.57486   0.30410   0.75736 
H          H       0.54856   0.28187   0.90235 
H          H       0.71950   0.26784   0.89563 
H          H       0.73189   0.45554   0.90151 
H          H       0.21498   0.61578   0.56905 
H          H       0.38477   0.59914   0.55775 
H          H       0.40022   0.78863   0.56762 
H          H       0.88144   0.94878   0.73454 
H          H       0.05158   0.93279   0.72452 
H          H       0.06646   0.12196   0.73350 
H          H       0.61081   0.38142   0.85942 
H          H       0.61833   0.22949   0.85837 
H          H       0.76737   0.39818   0.84653 
H          H       0.27764   0.71576   0.52680 
H          H       0.28248   0.55993   0.52353 
H          H       0.43598   0.73145   0.51159 
H          H       0.94390   0.04859   0.69197 
H          H       0.94950   0.89362   0.68954 
H          H       0.10245   0.06485   0.67794 
H          H       0.35325   0.52326   0.88301 
H          H       0.33589   0.52794   0.95024 
H          H       0.35374   0.48417   0.93439 
H          H       0.20546   0.51018   0.57207 
H          H       0.16654   0.44738   0.55668 
H          H       0.20579   0.48796   0.50623 
H          H       0.18425   0.20234   0.59152 
H          H       0.14363   0.16162   0.54170 
H          H       0.14145   0.14081   0.60899 
H          H       0.20876   0.05826   0.68282 
H          H       0.14588   0.03317   0.69734 
H          H       0.18718   0.04023   0.74965 
H          H       0.52236   0.32931   0.78408 
H          H       0.46181   0.31223   0.76372 
H          H       0.50481   0.31513   0.71516 
H          H       0.63885   0.46049   0.90348 
H          H       0.61521   0.49919   0.88597 
H          H       0.61580   0.45803   0.83746 
H          H       0.87220   0.84380   0.73717 
H          H       0.83335   0.78098   0.72182 
H          H       0.87287   0.82150   0.67148 
H          H       0.54256   0.72507   0.51637 
H          H       0.47965   0.69996   0.53068 
H          H       0.52082   0.70700   0.58314 
H          H       0.85602   0.99629   0.61738 
H          H       0.79540   0.97916   0.59725 
H          H       0.83825   0.98196   0.54854 
H          H       0.51777   0.86847   0.92387 
H          H       0.47653   0.82704   0.87496 
H          H       0.47511   0.80722   0.94257 
H          H       0.53971   0.17863   0.90448 
H          H       0.50125   0.11646   0.88605 
H          H       0.54234   0.15891   0.83800 
H          H       0.85096   0.53591   0.75920 
H          H       0.81056   0.49493   0.70940 
H          H       0.80806   0.47446   0.77691 
H          H       0.87326   0.39076   0.84909 
H          H       0.81059   0.36608   0.86491 
H          H       0.85270   0.37319   0.91626 
H          H       0.68603   0.18975   0.71752 
H          H       0.66913   0.19474   0.78485 
H          H       0.68688   0.15090   0.76898 
H          H       0.19023   0.66320   0.95163 
H          H       0.13002   0.64665   0.93037 
H          H       0.17345   0.64949   0.88248 
H          H       0.01962   0.85668   0.54922 
H          H       0.00206   0.86132   0.61635 
H          H       0.02001   0.81760   0.60067 
H          H       0.97197   0.12742   0.73784 
H          H       0.94847   0.16619   0.72016 
H          H       0.94952   0.12535   0.67156 
H          H       0.30525   0.79440   0.57388 
H          H       0.28188   0.83312   0.55553 
H          H       0.28371   0.79253   0.50718 
