data_crystal

_cell_length_a    66.38000
_cell_length_b    37.65000
_cell_length_c    29.22000
_cell_angle_alpha 90.00000
_cell_angle_beta  104.50000
_cell_angle_gamma 90.00000

_space_group_name_Hall 'P 1'
_space_group_name_H-M_alt 'P 1'

loop_
_symmetry_equiv_pos_as_xyz
 'x,y,z'

loop_
_atom_site_label
_atom_site_type_symbol
_atom_site_fract_x
_atom_site_fract_y
_atom_site_fract_z
C          C       0.27378   0.29307   0.37171
C          C       0.72622   0.29307   0.12829
C          C       0.77378   0.79307   0.37171
C          C       0.22622   0.79307   0.12829
C          C       0.29347   0.28244   0.39903
C          C       0.70653   0.28244   0.10097
C          C       0.79347   0.78244   0.39903
C          C       0.20653   0.78244   0.10097
C          C       0.31156   0.29941   0.39408
C          C       0.68844   0.29941   0.10592
C          C       0.81156   0.79941   0.39408
C          C       0.18844   0.79941   0.10592
C          C       0.31044   0.32773   0.36219
C          C       0.68956   0.32773   0.13781
C          C       0.81044   0.82773   0.36219
C          C       0.18956   0.82773   0.13781
C          C       0.29085   0.33837   0.33474
C          C       0.70915   0.33837   0.16526
C          C       0.79085   0.83837   0.33474
C          C       0.20915   0.83837   0.16526
C          C       0.27266   0.32122   0.33930
C          C       0.72734   0.32122   0.16070
C          C       0.77266   0.82122   0.33930
C          C       0.22734   0.82122   0.16070
C          C       0.95806   0.91462   0.29580
C          C       0.04194   0.91462   0.20420
C          C       0.45806   0.41462   0.29580
C          C       0.54194   0.41462   0.20420
C          C       0.94984   0.92457   0.33376
C          C       0.05016   0.92457   0.16624
C          C       0.44984   0.42457   0.33376
C          C       0.55016   0.42457   0.16624
C          C       0.96211   0.94494   0.37056
C          C       0.03789   0.94494   0.12944
C          C       0.46211   0.44494   0.37056
C          C       0.53789   0.44494   0.12944
C          C       0.98211   0.95594   0.36896
C          C       0.01789   0.95594   0.13104
C          C       0.48211   0.45594   0.36896
C          C       0.51789   0.45594   0.13104
C          C       0.99019   0.94668   0.33038
C          C       0.00981   0.94668   0.16962
C          C       0.49019   0.44668   0.33038
C          C       0.50981   0.44668   0.16962
C          C       0.97798   0.92572   0.29403
C          C       0.02202   0.92572   0.20597
C          C       0.47798   0.42572   0.29403
C          C       0.52202   0.42572   0.20597
C          C       0.26710   0.92287   0.38858
C          C       0.73290   0.92287   0.11142
C          C       0.76710   0.42287   0.38858
C          C       0.23290   0.42287   0.11142
C          C       0.27874   0.93244   0.35639
C          C       0.72126   0.93244   0.14361
C          C       0.77874   0.43244   0.35639
C          C       0.22126   0.43244   0.14361
C          C       0.29804   0.91612   0.35845
C          C       0.70196   0.91612   0.14155
C          C       0.79804   0.41612   0.35845
C          C       0.20196   0.41612   0.14155
C          C       0.30607   0.88978   0.39244
C          C       0.69393   0.88978   0.10756
C          C       0.80607   0.38978   0.39244
C          C       0.19393   0.38978   0.10756
C          C       0.29414   0.87980   0.42373
C          C       0.70586   0.87980   0.07627
C          C       0.79414   0.37980   0.42373
C          C       0.20586   0.37980   0.07627
C          C       0.27495   0.89614   0.42198
C          C       0.72505   0.89614   0.07802
C          C       0.77495   0.39614   0.42198
C          C       0.22505   0.39614   0.07802
C          C       0.14243   0.23256   0.36173
C          C       0.85757   0.23256   0.13827
C          C       0.64243   0.73256   0.36173
C          C       0.35757   0.73256   0.13827
C          C       0.12196   0.23216   0.36280
C          C       0.87804   0.23216   0.13720
C          C       0.62196   0.73216   0.36280
C          C       0.37804   0.73216   0.13720
C          C       0.11612   0.19679   0.36187
C          C       0.88388   0.19679   0.13813
C          C       0.61612   0.69679   0.36187
C          C       0.38388   0.69679   0.13813
N          N       0.13241   0.17512   0.36051
N          N       0.86759   0.17512   0.13949
N          N       0.63241   0.67512   0.36051
N          N       0.36759   0.67512   0.13949
C          C       0.14851   0.19742   0.36022
C          C       0.85149   0.19742   0.13978
C          C       0.64851   0.69742   0.36022
C          C       0.35149   0.69742   0.13978
C          C       0.16847   0.18711   0.35740
C          C       0.83153   0.18711   0.14260
C          C       0.66847   0.68711   0.35740
C          C       0.33153   0.68711   0.14260
C          C       0.09572   0.18580   0.36046
C          C       0.90428   0.18580   0.13954
C          C       0.59572   0.68580   0.36046
C          C       0.40428   0.68580   0.13954
C          C       0.12313   0.01161   0.36220
C          C       0.87687   0.01161   0.13780
C          C       0.62313   0.51161   0.36220
C          C       0.37687   0.51161   0.13780
C          C       0.14364   0.01190   0.36173
C          C       0.85636   0.01190   0.13827
C          C       0.64364   0.51190   0.36173
C          C       0.35636   0.51190   0.13827
C          C       0.14936   0.04713   0.36020
C          C       0.85064   0.04713   0.13980
C          C       0.64936   0.54713   0.36020
C          C       0.35064   0.54713   0.13980
N          N       0.13300   0.06889   0.36013
N          N       0.86700   0.06889   0.13987
N          N       0.63300   0.56889   0.36013
N          N       0.36700   0.56889   0.13987
C          C       0.11691   0.04673   0.36105
C          C       0.88309   0.04673   0.13895
C          C       0.61691   0.54673   0.36105
C          C       0.38309   0.54673   0.13895
C          C       0.16930   0.05806   0.35792
C          C       0.83070   0.05806   0.14208
C          C       0.66930   0.55806   0.35792
C          C       0.33070   0.55806   0.14208
C          C       0.09642   0.05707   0.35981
C          C       0.90358   0.05707   0.14019
C          C       0.59642   0.55707   0.35981
C          C       0.40358   0.55707   0.14019
C          C       0.06880   0.13821   0.35907
C          C       0.93120   0.13821   0.14093
C          C       0.56880   0.63821   0.35907
C          C       0.43120   0.63821   0.14093
C          C       0.06897   0.10347   0.35853
C          C       0.93103   0.10347   0.14147
C          C       0.56897   0.60347   0.35853
C          C       0.43103   0.60347   0.14147
C          C       0.09016   0.09262   0.35879
C          C       0.90984   0.09262   0.14121
C          C       0.59016   0.59262   0.35879
C          C       0.40984   0.59262   0.14121
N          N       0.10241   0.12154   0.35916
N          N       0.89759   0.12154   0.14084
N          N       0.60241   0.62154   0.35916
N          N       0.39759   0.62154   0.14084
C          C       0.08991   0.14996   0.35941
C          C       0.91009   0.14996   0.14059
C          C       0.58991   0.64996   0.35941
C          C       0.41009   0.64996   0.14059
C          C       0.19570   0.10566   0.35674
C          C       0.80430   0.10566   0.14326
C          C       0.69570   0.60566   0.35674
C          C       0.30430   0.60566   0.14326
C          C       0.19552   0.14039   0.35687
C          C       0.80448   0.14039   0.14313
C          C       0.69552   0.64039   0.35687
C          C       0.30448   0.64039   0.14313
C          C       0.17436   0.15133   0.35708
C          C       0.82564   0.15133   0.14292
C          C       0.67436   0.65133   0.35708
C          C       0.32564   0.65133   0.14292
N          N       0.16207   0.12247   0.35731
N          N       0.83793   0.12247   0.14269
N          N       0.66207   0.62247   0.35731
N          N       0.33793   0.62247   0.14269
C          C       0.17472   0.09396   0.35693
C          C       0.82528   0.09396   0.14307
C          C       0.67472   0.59396   0.35693
C          C       0.32528   0.59396   0.14307
Cu         Cu      0.13207   0.12198   0.35828
Cu         Cu      0.86793   0.12198   0.14172
Cu         Cu      0.63207   0.62198   0.35828
Cu         Cu      0.36793   0.62198   0.14172
C          C       0.25486   0.27434   0.37768
C          C       0.74514   0.27434   0.12232
C          C       0.75486   0.77434   0.37768
C          C       0.24514   0.77434   0.12232
N          N       0.23712   0.27665   0.34602
N          N       0.76288   0.27665   0.15398
N          N       0.73712   0.77665   0.34602
N          N       0.26288   0.77665   0.15398
C          C       0.21865   0.25765   0.34882
C          C       0.78135   0.25765   0.15118
C          C       0.71865   0.75765   0.34882
C          C       0.28135   0.75765   0.15118
C          C       0.20659   0.24113   0.30816
C          C       0.79341   0.24113   0.19184
C          C       0.70659   0.74113   0.30816
C          C       0.29341   0.74113   0.19184
C          C       0.18961   0.21973   0.31055
C          C       0.81039   0.21973   0.18945
C          C       0.68961   0.71973   0.31055
C          C       0.31039   0.71973   0.18945
C          C       0.18428   0.21465   0.35368
C          C       0.81572   0.21465   0.14632
C          C       0.68428   0.71465   0.35368
C          C       0.31572   0.71465   0.14632
C          C       0.19556   0.23310   0.39390
C          C       0.80444   0.23310   0.10610
C          C       0.69556   0.73310   0.39390
C          C       0.30444   0.73310   0.10610
C          C       0.21240   0.25503   0.39118
C          C       0.78760   0.25503   0.10882
C          C       0.71240   0.75503   0.39118
C          C       0.28760   0.75503   0.10882
C          C       0.18572   0.03069   0.35726
C          C       0.81428   0.03069   0.14274
C          C       0.68572   0.53069   0.35726
C          C       0.31428   0.53069   0.14274
C          C       0.08005   0.02973   0.35950
C          C       0.91995   0.02973   0.14050
C          C       0.58005   0.52973   0.35950
C          C       0.41995   0.52973   0.14050
C          C       0.07896   0.21245   0.35983
C          C       0.92104   0.21245   0.14017
C          C       0.57896   0.71245   0.35983
C          C       0.42104   0.71245   0.14017
C          C       0.19592   0.01285   0.39886
C          C       0.80408   0.01285   0.10114
C          C       0.69592   0.51285   0.39886
C          C       0.30408   0.51285   0.10114
C          C       0.21287   0.99026   0.39964
C          C       0.78713   0.99026   0.10036
C          C       0.71287   0.49026   0.39964
C          C       0.28713   0.49026   0.10036
C          C       0.22010   0.98519   0.35863
C          C       0.77990   0.98519   0.14137
C          C       0.72010   0.48519   0.35863
C          C       0.27990   0.48519   0.14137
C          C       0.20969   0.00270   0.31700
C          C       0.79031   0.00270   0.18300
C          C       0.70969   0.50270   0.31700
C          C       0.29031   0.50270   0.18300
C          C       0.19257   0.02483   0.31613
C          C       0.80743   0.02483   0.18387
C          C       0.69257   0.52483   0.31613
C          C       0.30743   0.52483   0.18387
C          C       0.06589   0.02077   0.31682
C          C       0.93411   0.02077   0.18318
C          C       0.56589   0.52077   0.31682
C          C       0.43411   0.52077   0.18318
C          C       0.04774   0.00182   0.31657
C          C       0.95226   0.00182   0.18343
C          C       0.54774   0.50182   0.31657
C          C       0.45226   0.50182   0.18343
C          C       0.04320   0.99178   0.35933
C          C       0.95680   0.99178   0.14067
C          C       0.54320   0.49178   0.35933
C          C       0.45680   0.49178   0.14067
C          C       0.05756   0.00015   0.40194
C          C       0.94244   0.00015   0.09806
C          C       0.55756   0.50015   0.40194
C          C       0.44244   0.50015   0.09806
C          C       0.07590   0.01867   0.40209
C          C       0.92410   0.01867   0.09791
C          C       0.57590   0.51867   0.40209
C          C       0.42410   0.51867   0.09791
C          C       0.06302   0.21706   0.31844
C          C       0.93698   0.21706   0.18156
C          C       0.56302   0.71706   0.31844
C          C       0.43698   0.71706   0.18156
C          C       0.04433   0.23375   0.31999
C          C       0.95567   0.23375   0.18001
C          C       0.54433   0.73375   0.31999
C          C       0.45567   0.73375   0.18001
C          C       0.04134   0.24703   0.36264
C          C       0.95866   0.24703   0.13736
C          C       0.54134   0.74703   0.36264
C          C       0.45866   0.74703   0.13736
C          C       0.05783   0.24441   0.40369
C          C       0.94217   0.24441   0.09631
C          C       0.55783   0.74441   0.40369
C          C       0.44217   0.74441   0.09631
C          C       0.07644   0.22711   0.40229
C          C       0.92356   0.22711   0.09771
C          C       0.57644   0.72711   0.40229
C          C       0.42356   0.72711   0.09771
C          C       0.01615   0.28013   0.39500
C          C       0.98385   0.28013   0.10500
C          C       0.51615   0.78013   0.39500
C          C       0.48385   0.78013   0.10500
N          N       0.02084   0.25921   0.36371
N          N       0.97916   0.25921   0.13629
N          N       0.52084   0.75921   0.36371
N          N       0.47916   0.75921   0.13629
C          C       0.01090   0.95930   0.32649
C          C       0.98910   0.95930   0.17350
C          C       0.51090   0.45930   0.32649
C          C       0.48910   0.45930   0.17350
N          N       0.02348   0.97634   0.36084
N          N       0.97652   0.97634   0.13916
N          N       0.52348   0.47634   0.36084
N          N       0.47652   0.47634   0.13916
C          C       0.24721   0.94086   0.38973
C          C       0.75279   0.94086   0.11027
C          C       0.74721   0.44086   0.38973
C          C       0.25279   0.44086   0.11027
N          N       0.23855   0.96472   0.35862
N          N       0.76145   0.96472   0.14138
N          N       0.73855   0.46472   0.35862
N          N       0.26145   0.46472   0.14138
C          C       0.96880   0.32636   0.41841
C          C       0.03120   0.32636   0.08159
C          C       0.46880   0.82636   0.41841
C          C       0.53120   0.82636   0.08159
C          C       0.95238   0.30503   0.39292
C          C       0.04762   0.30503   0.10708
C          C       0.45238   0.80503   0.39292
C          C       0.54762   0.80503   0.10708
C          C       0.95698   0.27560   0.36785
C          C       0.04302   0.27560   0.13215
C          C       0.45698   0.77560   0.36785
C          C       0.54302   0.77560   0.13215
C          C       0.97767   0.26748   0.36823
C          C       0.02233   0.26748   0.13177
C          C       0.47767   0.76748   0.36823
C          C       0.52233   0.76748   0.13177
C          C       0.99414   0.28886   0.39341
C          C       0.00586   0.28886   0.10659
C          C       0.49414   0.78886   0.39341
C          C       0.50586   0.78886   0.10659
C          C       0.98949   0.31822   0.41867
C          C       0.01051   0.31822   0.08133
C          C       0.48949   0.81822   0.41867
C          C       0.51051   0.81822   0.08133
H          H       0.29478   0.25978   0.42549
H          H       0.70522   0.25978   0.07451
H          H       0.79478   0.75978   0.42549
H          H       0.20522   0.75978   0.07451
H          H       0.32742   0.29031   0.41603
H          H       0.67258   0.29031   0.08397
H          H       0.82742   0.79031   0.41603
H          H       0.17258   0.79031   0.08397
H          H       0.28960   0.36113   0.30845
H          H       0.71040   0.36113   0.19156
H          H       0.78960   0.86113   0.30845
H          H       0.21040   0.86113   0.19156
H          H       0.25691   0.33018   0.31661
H          H       0.74309   0.33018   0.18339
H          H       0.75691   0.83018   0.31661
H          H       0.24309   0.83018   0.18339
H          H       0.94851   0.89739   0.26616
H          H       0.05149   0.89739   0.23384
H          H       0.44851   0.39739   0.26616
H          H       0.55149   0.39739   0.23384
H          H       0.95585   0.95268   0.40210
H          H       0.04415   0.95268   0.09790
H          H       0.45585   0.45268   0.40210
H          H       0.54415   0.45268   0.09790
H          H       0.99193   0.97249   0.39903
H          H       0.00807   0.97249   0.10097
H          H       0.49193   0.47249   0.39903
H          H       0.50807   0.47249   0.10097
H          H       0.98447   0.91779   0.26288
H          H       0.01553   0.91779   0.23712
H          H       0.48447   0.41779   0.26288
H          H       0.51553   0.41779   0.23712
H          H       0.27258   0.95353   0.32840
H          H       0.72742   0.95353   0.17160
H          H       0.77258   0.45353   0.32840
H          H       0.22742   0.45353   0.17160
H          H       0.30745   0.92413   0.33237
H          H       0.69255   0.92413   0.16763
H          H       0.80745   0.42413   0.33237
H          H       0.19255   0.42413   0.16763
H          H       0.30000   0.85814   0.45108
H          H       0.70000   0.85814   0.04892
H          H       0.80000   0.35814   0.45108
H          H       0.20000   0.35814   0.04892
H          H       0.26569   0.88750   0.44809
H          H       0.73431   0.88750   0.05191
H          H       0.76569   0.38750   0.44809
H          H       0.23431   0.38750   0.05191
H          H       0.15090   0.25893   0.36215
H          H       0.84910   0.25893   0.13785
H          H       0.65090   0.75893   0.36215
H          H       0.34910   0.75893   0.13785
H          H       0.11337   0.25820   0.36418
H          H       0.88663   0.25820   0.13582
H          H       0.61337   0.75820   0.36418
H          H       0.38663   0.75820   0.13582
H          H       0.11480   0.98528   0.36335
H          H       0.88520   0.98528   0.13665
H          H       0.61480   0.48528   0.36335
H          H       0.38520   0.48528   0.13665
H          H       0.15244   0.98581   0.36256
H          H       0.84756   0.98581   0.13744
H          H       0.65244   0.48581   0.36256
H          H       0.34756   0.48581   0.13744
H          H       0.05384   0.15304   0.35917
H          H       0.94616   0.15304   0.14083
H          H       0.55384   0.65304   0.35917
H          H       0.44616   0.65304   0.14083
H          H       0.05414   0.08803   0.35799
H          H       0.94586   0.08803   0.14201
H          H       0.55414   0.58803   0.35799
H          H       0.44586   0.58803   0.14201
H          H       0.21063   0.09078   0.35653
H          H       0.78937   0.09078   0.14347
H          H       0.71063   0.59078   0.35653
H          H       0.28937   0.59078   0.14347
H          H       0.21030   0.15579   0.35681
H          H       0.78970   0.15579   0.14319
H          H       0.71030   0.65579   0.35681
H          H       0.28970   0.65579   0.14319
H          H       0.25610   0.25768   0.41084
H          H       0.74390   0.25768   0.08916
H          H       0.75610   0.75768   0.41084
H          H       0.24390   0.75768   0.08916
H          H       0.21055   0.24506   0.27272
H          H       0.78945   0.24506   0.22728
H          H       0.71055   0.74506   0.27272
H          H       0.28945   0.74506   0.22728
H          H       0.17998   0.20625   0.27731
H          H       0.82002   0.20625   0.22269
H          H       0.67998   0.70625   0.27731
H          H       0.32002   0.70625   0.22269
H          H       0.19107   0.23031   0.42891
H          H       0.80893   0.23031   0.07109
H          H       0.69107   0.73031   0.42891
H          H       0.30893   0.73031   0.07109
H          H       0.22098   0.27071   0.42358
H          H       0.77902   0.27071   0.07642
H          H       0.72098   0.77071   0.42358
H          H       0.27902   0.77071   0.07642
H          H       0.19048   0.01660   0.43257
H          H       0.80952   0.01660   0.06743
H          H       0.69048   0.51660   0.43257
H          H       0.30952   0.51660   0.06743
H          H       0.22090   0.97585   0.43361
H          H       0.77910   0.97585   0.06639
H          H       0.72090   0.47585   0.43361
H          H       0.27910   0.47585   0.06639
H          H       0.21511   0.99905   0.28323
H          H       0.78489   0.99905   0.21677
H          H       0.71511   0.49905   0.28323
H          H       0.28489   0.49905   0.21677
H          H       0.18420   0.03810   0.28154
H          H       0.81580   0.03810   0.21846
H          H       0.68420   0.53810   0.28154
H          H       0.31580   0.53810   0.21846
H          H       0.06910   0.02894   0.28175
H          H       0.93090   0.02894   0.21825
H          H       0.56910   0.52894   0.28175
H          H       0.43090   0.52894   0.21825
H          H       0.03650   0.99439   0.28159
H          H       0.96350   0.99439   0.21841
H          H       0.53650   0.49439   0.28159
H          H       0.46350   0.49439   0.21841
H          H       0.05439   0.99189   0.43701
H          H       0.94561   0.99189   0.06299
H          H       0.55439   0.49189   0.43701
H          H       0.44561   0.49189   0.06299
H          H       0.08749   0.02472   0.43716
H          H       0.91251   0.02472   0.06284
H          H       0.58749   0.52472   0.43716
H          H       0.41251   0.52472   0.06284
H          H       0.06522   0.20720   0.28313
H          H       0.93478   0.20720   0.21687
H          H       0.56522   0.70720   0.28313
H          H       0.43478   0.70720   0.21687
H          H       0.03134   0.23666   0.28632
H          H       0.96866   0.23666   0.21368
H          H       0.53134   0.73666   0.28632
H          H       0.46866   0.73666   0.21368
H          H       0.05613   0.25638   0.43835
H          H       0.94387   0.25638   0.06165
H          H       0.55613   0.75638   0.43835
H          H       0.44387   0.75638   0.06165
H          H       0.08954   0.22502   0.43589
H          H       0.91046   0.22502   0.06411
H          H       0.58954   0.72502   0.43589
H          H       0.41046   0.72502   0.06411
H          H       0.02903   0.29210   0.42427
H          H       0.97097   0.29210   0.07574
H          H       0.52903   0.79210   0.42427
H          H       0.47097   0.79210   0.07574
H          H       0.01570   0.95373   0.29235
H          H       0.98430   0.95373   0.20765
H          H       0.51570   0.45373   0.29235
H          H       0.48430   0.45373   0.20765
H          H       0.23955   0.93310   0.41913
H          H       0.76045   0.93310   0.08087
H          H       0.73955   0.43310   0.41913
H          H       0.26045   0.43310   0.08087
H          H       0.96535   0.35037   0.43897
H          H       0.03465   0.35037   0.06103
H          H       0.46535   0.85037   0.43897
H          H       0.53465   0.85037   0.06103
H          H       0.94387   0.25807   0.34698
H          H       0.05613   0.25807   0.15302
H          H       0.44387   0.75807   0.34698
H          H       0.55613   0.75807   0.15302
H          H       0.98127   0.24338   0.34801
H          H       0.01873   0.24338   0.15199
H          H       0.48127   0.74338   0.34801
H          H       0.51873   0.74338   0.15199
H          H       0.00272   0.33550   0.43952
H          H       0.99728   0.33550   0.06048
H          H       0.50272   0.83550   0.43952
H          H       0.49728   0.83550   0.06048
O          O       0.63133   0.47144   0.17522
O          O       0.36867   0.47144   0.32478
O          O       0.13133   0.97144   0.17522
O          O       0.86867   0.97144   0.32478
O          O       0.61281   0.43706   0.10730
O          O       0.38719   0.43706   0.39270
O          O       0.11281   0.93706   0.10730
O          O       0.88719   0.93706   0.39270
O          O       0.64847   0.43956   0.11184
O          O       0.35153   0.43956   0.38816
O          O       0.14847   0.93956   0.11184
O          O       0.85153   0.93956   0.38816
O          O       0.64935   0.41808   0.19781
O          O       0.35065   0.41808   0.30219
O          O       0.14935   0.91808   0.19781
O          O       0.85065   0.91808   0.30219
P          P       0.63387   0.43782   0.15161
P          P       0.36613   0.43782   0.34839
P          P       0.13387   0.93782   0.15161
P          P       0.86613   0.93782   0.34839
C          C       0.57058   0.41086   0.16109
C          C       0.42942   0.41086   0.33891
C          C       0.07058   0.91086   0.16109
C          C       0.92942   0.91086   0.33891
C          C       0.57819   0.37786   0.18196
C          C       0.42181   0.37786   0.31805
C          C       0.07819   0.87786   0.18196
C          C       0.92181   0.87786   0.31805
C          C       0.59830   0.36553   0.17976
C          C       0.40170   0.36553   0.32024
C          C       0.09830   0.86553   0.17976
C          C       0.90170   0.86553   0.32024
C          C       0.61069   0.38636   0.15698
C          C       0.38931   0.38636   0.34303
C          C       0.11069   0.88636   0.15698
C          C       0.88931   0.88636   0.34303
C          C       0.60242   0.41830   0.13492
C          C       0.39758   0.41830   0.36508
C          C       0.10242   0.91830   0.13492
C          C       0.89758   0.91830   0.36508
C          C       0.58303   0.43090   0.13861
C          C       0.41697   0.43090   0.36139
C          C       0.08303   0.93090   0.13861
C          C       0.91697   0.93090   0.36139
C          C       0.63033   0.37085   0.14886
C          C       0.36967   0.37085   0.35113
C          C       0.13033   0.87085   0.14886
C          C       0.86967   0.87085   0.35113
C          C       0.64906   0.38837   0.17026
C          C       0.35094   0.38837   0.32974
C          C       0.14906   0.88837   0.17026
C          C       0.85094   0.88837   0.32974
C          C       0.66818   0.37557   0.16531
C          C       0.33182   0.37557   0.33469
C          C       0.16818   0.87557   0.16531
C          C       0.83182   0.87557   0.33469
C          C       0.66945   0.34404   0.14089
C          C       0.33055   0.34404   0.35911
C          C       0.16945   0.84404   0.14089
C          C       0.83055   0.84404   0.35911
C          C       0.65094   0.32449   0.12172
C          C       0.34906   0.32449   0.37828
C          C       0.15094   0.82449   0.12172
C          C       0.84906   0.82449   0.37828
C          C       0.63132   0.33795   0.12600
C          C       0.36868   0.33795   0.37400
C          C       0.13132   0.83795   0.12600
C          C       0.86868   0.83795   0.37400
C          C       0.56623   0.35681   0.20528
C          C       0.43377   0.35681   0.29473
C          C       0.06623   0.85681   0.20528
C          C       0.93377   0.85681   0.29473
C          C       0.57349   0.32398   0.22460
C          C       0.42651   0.32398   0.27540
C          C       0.07349   0.82398   0.22460
C          C       0.92651   0.82398   0.27540
C          C       0.59283   0.31155   0.22110
C          C       0.40717   0.31155   0.27890
C          C       0.09283   0.81155   0.22110
C          C       0.90717   0.81155   0.27890
C          C       0.60518   0.33207   0.19915
C          C       0.39482   0.33207   0.30085
C          C       0.10518   0.83207   0.19915
C          C       0.89482   0.83207   0.30085
C          C       0.61322   0.31765   0.10825
C          C       0.38678   0.31765   0.39175
C          C       0.11322   0.81765   0.10825
C          C       0.88678   0.81765   0.39175
C          C       0.61433   0.28492   0.08664
C          C       0.38567   0.28492   0.41336
C          C       0.11433   0.78492   0.08664
C          C       0.88567   0.78492   0.41336
C          C       0.63341   0.27180   0.08221
C          C       0.36659   0.27180   0.41780
C          C       0.13341   0.77180   0.08221
C          C       0.86659   0.77180   0.41780
C          C       0.65157   0.29135   0.09965
C          C       0.34843   0.29135   0.40035
C          C       0.15157   0.79135   0.09965
C          C       0.84843   0.79135   0.40035
Cl         Cl      0.55823   0.29849   0.25369
Cl         Cl      0.44177   0.29849   0.24631
Cl         Cl      0.05823   0.79849   0.25369
Cl         Cl      0.94177   0.79849   0.24631
Cl         Cl      0.63465   0.23036   0.05523
Cl         Cl      0.36535   0.23036   0.44477
Cl         Cl      0.13465   0.73036   0.05523
Cl         Cl      0.86535   0.73036   0.44477
H          H       0.57745   0.45796   0.12294
H          H       0.42255   0.45796   0.37706
H          H       0.07745   0.95796   0.12294
H          H       0.92255   0.95796   0.37706
H          H       0.68309   0.39090   0.18132
H          H       0.31691   0.39090   0.31868
H          H       0.18309   0.89090   0.18132
H          H       0.81691   0.89090   0.31868
H          H       0.55039   0.36659   0.20851
H          H       0.44961   0.36659   0.29149
H          H       0.05039   0.86659   0.20851
H          H       0.94961   0.86659   0.29149
H          H       0.59863   0.28446   0.23622
H          H       0.40137   0.28446   0.26377
H          H       0.09863   0.78446   0.23622
H          H       0.90137   0.78446   0.26377
H          H       0.62101   0.32151   0.19698
H          H       0.37899   0.32151   0.30302
H          H       0.12101   0.82151   0.19698
H          H       0.87899   0.82151   0.30302
H          H       0.59748   0.32793   0.11149
H          H       0.40252   0.32793   0.38851
H          H       0.09748   0.82793   0.11149
H          H       0.90252   0.82793   0.38851
H          H       0.59958   0.26871   0.07246
H          H       0.40042   0.26871   0.42754
H          H       0.09958   0.76871   0.07246
H          H       0.90042   0.76871   0.42754
H          H       0.66704   0.28021   0.09588
H          H       0.33296   0.28021   0.40412
H          H       0.16704   0.78021   0.09588
H          H       0.83296   0.78021   0.40412
O          O       0.84262   0.27820   0.36490
O          O       0.15738   0.27820   0.13510
O          O       0.34262   0.77820   0.36490
O          O       0.65738   0.77820   0.13510
O          O       0.86215   0.29990   0.43669
O          O       0.13785   0.29990   0.06331
O          O       0.36215   0.79990   0.43669
O          O       0.63785   0.79990   0.06331
O          O       0.88091   0.25212   0.40490
O          O       0.11909   0.25212   0.09510
O          O       0.38091   0.75212   0.40490
O          O       0.61909   0.75212   0.09510
O          O       0.87657   0.28975   0.34118
O          O       0.12343   0.28975   0.15882
O          O       0.37657   0.78975   0.34118
O          O       0.62343   0.78975   0.15882
P          P       0.86808   0.28359   0.38922
P          P       0.13192   0.28359   0.11078
P          P       0.36808   0.78359   0.38922
P          P       0.63192   0.78359   0.11078
C          C       0.82741   0.37517   0.39310
C          C       0.17259   0.37517   0.10690
C          C       0.32741   0.87517   0.39310
C          C       0.67259   0.87517   0.10690
C          C       0.84019   0.39617   0.37140
C          C       0.15981   0.39617   0.12860
C          C       0.34019   0.89617   0.37140
C          C       0.65981   0.89617   0.12860
C          C       0.86029   0.38361   0.36949
C          C       0.13971   0.38361   0.13051
C          C       0.36029   0.88361   0.36949
C          C       0.63971   0.88361   0.13051
C          C       0.86741   0.35007   0.38902
C          C       0.13259   0.35007   0.11098
C          C       0.36741   0.85007   0.38902
C          C       0.63259   0.85007   0.11098
C          C       0.85476   0.33042   0.41202
C          C       0.14524   0.33042   0.08798
C          C       0.35476   0.83042   0.41202
C          C       0.64524   0.83042   0.08798
C          C       0.83478   0.34223   0.41233
C          C       0.16522   0.34223   0.08767
C          C       0.33478   0.84223   0.41233
C          C       0.66522   0.84223   0.08767
C          C       0.88958   0.33954   0.39298
C          C       0.11042   0.33954   0.10702
C          C       0.38958   0.83954   0.39298
C          C       0.61042   0.83954   0.10702
C          C       0.89290   0.30889   0.36822
C          C       0.10710   0.30889   0.13178
C          C       0.39290   0.80889   0.36822
C          C       0.60710   0.80889   0.13178
C          C       0.91303   0.29732   0.36919
C          C       0.08697   0.29732   0.13081
C          C       0.41303   0.79732   0.36919
C          C       0.58697   0.79732   0.13081
C          C       0.93049   0.31671   0.39287
C          C       0.06951   0.31671   0.10713
C          C       0.43049   0.81671   0.39287
C          C       0.56951   0.81671   0.10713
C          C       0.92756   0.34907   0.41542
C          C       0.07244   0.34907   0.08458
C          C       0.42756   0.84907   0.41542
C          C       0.57244   0.84907   0.08458
C          C       0.90698   0.36056   0.41521
C          C       0.09302   0.36056   0.08479
C          C       0.40698   0.86056   0.41521
C          C       0.59302   0.86056   0.08479
C          C       0.83337   0.42950   0.35125
C          C       0.16663   0.42950   0.14875
C          C       0.33337   0.92950   0.35125
C          C       0.66663   0.92950   0.14875
C          C       0.84617   0.45051   0.33112
C          C       0.15383   0.45051   0.16888
C          C       0.34617   0.95051   0.33112
C          C       0.65383   0.95051   0.16888
C          C       0.86601   0.43864   0.33064
C          C       0.13399   0.43864   0.16936
C          C       0.36601   0.93864   0.33064
C          C       0.63399   0.93864   0.16936
C          C       0.87301   0.40553   0.34937
C          C       0.12699   0.40553   0.15063
C          C       0.37301   0.90553   0.34937
C          C       0.62699   0.90553   0.15063
C          C       0.90431   0.39330   0.43631
C          C       0.09569   0.39330   0.06369
C          C       0.40431   0.89330   0.43631
C          C       0.59569   0.89330   0.06369
C          C       0.92146   0.41427   0.45730
C          C       0.07854   0.41427   0.04270
C          C       0.42146   0.91427   0.45730
C          C       0.57854   0.91427   0.04270
C          C       0.94155   0.40307   0.45778
C          C       0.05845   0.40307   0.04222
C          C       0.44155   0.90307   0.45778
C          C       0.55845   0.90307   0.04222
C          C       0.94459   0.37081   0.43696
C          C       0.05541   0.37081   0.06304
C          C       0.44459   0.87081   0.43696
C          C       0.55541   0.87081   0.06304
Cl         Cl      0.83712   0.49185   0.30606
Cl         Cl      0.16288   0.49185   0.19394
Cl         Cl      0.33712   0.99185   0.30606
Cl         Cl      0.66288   0.99185   0.19394
Cl         Cl      0.96305   0.42985   0.48401
Cl         Cl      0.03695   0.42985   0.01599
Cl         Cl      0.46305   0.92985   0.48401
Cl         Cl      0.53695   0.92985   0.01599
H          H       0.82448   0.32453   0.42859
H          H       0.17552   0.32453   0.07141
H          H       0.32448   0.82453   0.42859
H          H       0.67552   0.82453   0.07141
H          H       0.91541   0.27168   0.35047
H          H       0.08459   0.27168   0.14953
H          H       0.41541   0.77168   0.35047
H          H       0.58459   0.77168   0.14953
H          H       0.81718   0.43959   0.35130
H          H       0.18282   0.43959   0.14870
H          H       0.31718   0.93959   0.35130
H          H       0.68282   0.93959   0.14870
H          H       0.87661   0.45605   0.31487
H          H       0.12339   0.45605   0.18513
H          H       0.37661   0.95605   0.31487
H          H       0.62339   0.95605   0.18513
H          H       0.88923   0.39624   0.34830
H          H       0.11077   0.39624   0.15170
H          H       0.38923   0.89624   0.34830
H          H       0.61077   0.89624   0.15170
H          H       0.88802   0.40289   0.43633
H          H       0.11198   0.40289   0.06367
H          H       0.38802   0.90289   0.43633
H          H       0.61198   0.90289   0.06367
H          H       0.91910   0.44073   0.47421
H          H       0.08090   0.44073   0.02579
H          H       0.41910   0.94073   0.47421
H          H       0.58090   0.94073   0.02579
H          H       0.96110   0.36210   0.43753
H          H       0.03890   0.36210   0.06247
H          H       0.46110   0.86210   0.43753
H          H       0.53890   0.86210   0.06247
H          H       0.36043   0.45311   0.42069
H          H       0.63957   0.45311   0.07931
H          H       0.86043   0.95311   0.42069
H          H       0.13957   0.95311   0.07931
H          H       0.33361   0.79623   0.38237
H          H       0.66639   0.79623   0.11763
H          H       0.83361   0.29623   0.38237
H          H       0.16639   0.29623   0.11763
C          C       0.27378   0.29307   0.87171
C          C       0.72622   0.29307   0.62829
C          C       0.77378   0.79307   0.87171
C          C       0.22622   0.79307   0.62829
C          C       0.29347   0.28244   0.89903
C          C       0.70653   0.28244   0.60097
C          C       0.79347   0.78244   0.89903
C          C       0.20653   0.78244   0.60097
C          C       0.31156   0.29941   0.89407
C          C       0.68844   0.29941   0.60592
C          C       0.81156   0.79941   0.89407
C          C       0.18844   0.79941   0.60592
C          C       0.31044   0.32773   0.86219
C          C       0.68956   0.32773   0.63781
C          C       0.81044   0.82773   0.86219
C          C       0.18956   0.82773   0.63781
C          C       0.29085   0.33837   0.83474
C          C       0.70915   0.33837   0.66526
C          C       0.79085   0.83837   0.83474
C          C       0.20915   0.83837   0.66526
C          C       0.27266   0.32122   0.83930
C          C       0.72734   0.32122   0.66070
C          C       0.77266   0.82122   0.83930
C          C       0.22734   0.82122   0.66070
C          C       0.95806   0.91462   0.79581
C          C       0.04194   0.91462   0.70420
C          C       0.45806   0.41462   0.79581
C          C       0.54194   0.41462   0.70420
C          C       0.94984   0.92457   0.83375
C          C       0.05016   0.92457   0.66624
C          C       0.44984   0.42457   0.83375
C          C       0.55016   0.42457   0.66624
C          C       0.96211   0.94494   0.87056
C          C       0.03789   0.94494   0.62944
C          C       0.46211   0.44494   0.87056
C          C       0.53789   0.44494   0.62944
C          C       0.98211   0.95594   0.86896
C          C       0.01789   0.95594   0.63104
C          C       0.48211   0.45594   0.86896
C          C       0.51789   0.45594   0.63104
C          C       0.99019   0.94668   0.83038
C          C       0.00981   0.94668   0.66962
C          C       0.49019   0.44668   0.83038
C          C       0.50981   0.44668   0.66962
C          C       0.97798   0.92572   0.79403
C          C       0.02202   0.92572   0.70597
C          C       0.47798   0.42572   0.79403
C          C       0.52202   0.42572   0.70597
C          C       0.26710   0.92287   0.88857
C          C       0.73290   0.92287   0.61142
C          C       0.76710   0.42287   0.88857
C          C       0.23290   0.42287   0.61142
C          C       0.27874   0.93244   0.85639
C          C       0.72126   0.93244   0.64361
C          C       0.77874   0.43244   0.85639
C          C       0.22126   0.43244   0.64361
C          C       0.29804   0.91612   0.85845
C          C       0.70196   0.91612   0.64155
C          C       0.79804   0.41612   0.85845
C          C       0.20196   0.41612   0.64155
C          C       0.30607   0.88978   0.89244
C          C       0.69393   0.88978   0.60756
C          C       0.80607   0.38978   0.89244
C          C       0.19393   0.38978   0.60756
C          C       0.29414   0.87980   0.92373
C          C       0.70586   0.87980   0.57627
C          C       0.79414   0.37980   0.92373
C          C       0.20586   0.37980   0.57627
C          C       0.27495   0.89614   0.92198
C          C       0.72505   0.89614   0.57802
C          C       0.77495   0.39614   0.92198
C          C       0.22505   0.39614   0.57802
C          C       0.14243   0.23256   0.86173
C          C       0.85757   0.23256   0.63828
C          C       0.64243   0.73256   0.86173
C          C       0.35757   0.73256   0.63828
C          C       0.12196   0.23216   0.86280
C          C       0.87804   0.23216   0.63719
C          C       0.62196   0.73216   0.86280
C          C       0.37804   0.73216   0.63719
C          C       0.11612   0.19679   0.86187
C          C       0.88388   0.19679   0.63813
C          C       0.61612   0.69679   0.86187
C          C       0.38388   0.69679   0.63813
N          N       0.13241   0.17512   0.86051
N          N       0.86759   0.17512   0.63949
N          N       0.63241   0.67512   0.86051
N          N       0.36759   0.67512   0.63949
C          C       0.14851   0.19742   0.86022
C          C       0.85149   0.19742   0.63978
C          C       0.64851   0.69742   0.86022
C          C       0.35149   0.69742   0.63978
C          C       0.16847   0.18711   0.85740
C          C       0.83153   0.18711   0.64260
C          C       0.66847   0.68711   0.85740
C          C       0.33153   0.68711   0.64260
C          C       0.09572   0.18580   0.86046
C          C       0.90428   0.18580   0.63954
C          C       0.59572   0.68580   0.86046
C          C       0.40428   0.68580   0.63954
C          C       0.12313   0.01161   0.86220
C          C       0.87687   0.01161   0.63780
C          C       0.62313   0.51161   0.86220
C          C       0.37687   0.51161   0.63780
C          C       0.14364   0.01190   0.86173
C          C       0.85636   0.01190   0.63828
C          C       0.64364   0.51190   0.86173
C          C       0.35636   0.51190   0.63828
C          C       0.14936   0.04713   0.86020
C          C       0.85064   0.04713   0.63980
C          C       0.64936   0.54713   0.86020
C          C       0.35064   0.54713   0.63980
N          N       0.13300   0.06889   0.86013
N          N       0.86700   0.06889   0.63987
N          N       0.63300   0.56889   0.86013
N          N       0.36700   0.56889   0.63987
C          C       0.11691   0.04673   0.86105
C          C       0.88309   0.04673   0.63895
C          C       0.61691   0.54673   0.86105
C          C       0.38309   0.54673   0.63895
C          C       0.16930   0.05806   0.85793
C          C       0.83070   0.05806   0.64208
C          C       0.66930   0.55806   0.85793
C          C       0.33070   0.55806   0.64208
C          C       0.09642   0.05707   0.85981
C          C       0.90358   0.05707   0.64019
C          C       0.59642   0.55707   0.85981
C          C       0.40358   0.55707   0.64019
C          C       0.06880   0.13821   0.85907
C          C       0.93120   0.13821   0.64093
C          C       0.56880   0.63821   0.85907
C          C       0.43120   0.63821   0.64093
C          C       0.06897   0.10347   0.85853
C          C       0.93103   0.10347   0.64147
C          C       0.56897   0.60347   0.85853
C          C       0.43103   0.60347   0.64147
C          C       0.09016   0.09262   0.85879
C          C       0.90984   0.09262   0.64121
C          C       0.59016   0.59262   0.85879
C          C       0.40984   0.59262   0.64121
N          N       0.10241   0.12154   0.85916
N          N       0.89759   0.12154   0.64084
N          N       0.60241   0.62154   0.85916
N          N       0.39759   0.62154   0.64084
C          C       0.08991   0.14996   0.85942
C          C       0.91009   0.14996   0.64059
C          C       0.58991   0.64996   0.85942
C          C       0.41009   0.64996   0.64059
C          C       0.19570   0.10566   0.85674
C          C       0.80430   0.10566   0.64326
C          C       0.69570   0.60566   0.85674
C          C       0.30430   0.60566   0.64326
C          C       0.19552   0.14039   0.85687
C          C       0.80448   0.14039   0.64312
C          C       0.69552   0.64039   0.85687
C          C       0.30448   0.64039   0.64312
C          C       0.17436   0.15133   0.85708
C          C       0.82564   0.15133   0.64292
C          C       0.67436   0.65133   0.85708
C          C       0.32564   0.65133   0.64292
N          N       0.16207   0.12247   0.85731
N          N       0.83793   0.12247   0.64269
N          N       0.66207   0.62247   0.85731
N          N       0.33793   0.62247   0.64269
C          C       0.17472   0.09396   0.85693
C          C       0.82528   0.09396   0.64307
C          C       0.67472   0.59396   0.85693
C          C       0.32528   0.59396   0.64307
Cu         Cu      0.13207   0.12198   0.85828
Cu         Cu      0.86793   0.12198   0.64172
Cu         Cu      0.63207   0.62198   0.85828
Cu         Cu      0.36793   0.62198   0.64172
C          C       0.25486   0.27434   0.87768
C          C       0.74514   0.27434   0.62232
C          C       0.75486   0.77434   0.87768
C          C       0.24514   0.77434   0.62232
N          N       0.23712   0.27665   0.84601
N          N       0.76288   0.27665   0.65398
N          N       0.73712   0.77665   0.84601
N          N       0.26288   0.77665   0.65398
C          C       0.21865   0.25765   0.84882
C          C       0.78135   0.25765   0.65118
C          C       0.71865   0.75765   0.84882
C          C       0.28135   0.75765   0.65118
C          C       0.20659   0.24113   0.80816
C          C       0.79341   0.24113   0.69185
C          C       0.70659   0.74113   0.80816
C          C       0.29341   0.74113   0.69185
C          C       0.18961   0.21973   0.81055
C          C       0.81039   0.21973   0.68946
C          C       0.68961   0.71973   0.81055
C          C       0.31039   0.71973   0.68946
C          C       0.18428   0.21465   0.85368
C          C       0.81572   0.21465   0.64632
C          C       0.68428   0.71465   0.85368
C          C       0.31572   0.71465   0.64632
C          C       0.19556   0.23310   0.89390
C          C       0.80444   0.23310   0.60610
C          C       0.69556   0.73310   0.89390
C          C       0.30444   0.73310   0.60610
C          C       0.21240   0.25503   0.89118
C          C       0.78760   0.25503   0.60882
C          C       0.71240   0.75503   0.89118
C          C       0.28760   0.75503   0.60882
C          C       0.18572   0.03069   0.85727
C          C       0.81428   0.03069   0.64273
C          C       0.68572   0.53069   0.85727
C          C       0.31428   0.53069   0.64273
C          C       0.08005   0.02973   0.85949
C          C       0.91995   0.02973   0.64050
C          C       0.58005   0.52973   0.85949
C          C       0.41995   0.52973   0.64050
C          C       0.07896   0.21245   0.85983
C          C       0.92104   0.21245   0.64017
C          C       0.57896   0.71245   0.85983
C          C       0.42104   0.71245   0.64017
C          C       0.19592   0.01285   0.89886
C          C       0.80408   0.01285   0.60114
C          C       0.69592   0.51285   0.89886
C          C       0.30408   0.51285   0.60114
C          C       0.21287   0.99026   0.89964
C          C       0.78713   0.99026   0.60036
C          C       0.71287   0.49026   0.89964
C          C       0.28713   0.49026   0.60036
C          C       0.22010   0.98519   0.85863
C          C       0.77990   0.98519   0.64137
C          C       0.72010   0.48519   0.85863
C          C       0.27990   0.48519   0.64137
C          C       0.20969   0.00270   0.81699
C          C       0.79031   0.00270   0.68300
C          C       0.70969   0.50270   0.81699
C          C       0.29031   0.50270   0.68300
C          C       0.19257   0.02483   0.81613
C          C       0.80743   0.02483   0.68387
C          C       0.69257   0.52483   0.81613
C          C       0.30743   0.52483   0.68387
C          C       0.06589   0.02077   0.81682
C          C       0.93411   0.02077   0.68318
C          C       0.56589   0.52077   0.81682
C          C       0.43411   0.52077   0.68318
C          C       0.04774   0.00182   0.81657
C          C       0.95226   0.00182   0.68342
C          C       0.54774   0.50182   0.81657
C          C       0.45226   0.50182   0.68342
C          C       0.04320   0.99178   0.85933
C          C       0.95680   0.99178   0.64067
C          C       0.54320   0.49178   0.85933
C          C       0.45680   0.49178   0.64067
C          C       0.05756   0.00015   0.90194
C          C       0.94244   0.00015   0.59806
C          C       0.55756   0.50015   0.90194
C          C       0.44244   0.50015   0.59806
C          C       0.07590   0.01867   0.90209
C          C       0.92410   0.01867   0.59791
C          C       0.57590   0.51867   0.90209
C          C       0.42410   0.51867   0.59791
C          C       0.06302   0.21706   0.81844
C          C       0.93698   0.21706   0.68156
C          C       0.56302   0.71706   0.81844
C          C       0.43698   0.71706   0.68156
C          C       0.04433   0.23375   0.81999
C          C       0.95567   0.23375   0.68001
C          C       0.54433   0.73375   0.81999
C          C       0.45567   0.73375   0.68001
C          C       0.04134   0.24703   0.86264
C          C       0.95866   0.24703   0.63736
C          C       0.54134   0.74703   0.86264
C          C       0.45866   0.74703   0.63736
C          C       0.05783   0.24441   0.90368
C          C       0.94217   0.24441   0.59632
C          C       0.55783   0.74441   0.90368
C          C       0.44217   0.74441   0.59632
C          C       0.07644   0.22711   0.90229
C          C       0.92356   0.22711   0.59771
C          C       0.57644   0.72711   0.90229
C          C       0.42356   0.72711   0.59771
C          C       0.01615   0.28013   0.89501
C          C       0.98385   0.28013   0.60499
C          C       0.51615   0.78013   0.89501
C          C       0.48385   0.78013   0.60499
N          N       0.02084   0.25921   0.86370
N          N       0.97916   0.25921   0.63629
N          N       0.52084   0.75921   0.86370
N          N       0.47916   0.75921   0.63629
C          C       0.01090   0.95930   0.82649
C          C       0.98910   0.95930   0.67351
C          C       0.51090   0.45930   0.82649
C          C       0.48910   0.45930   0.67351
N          N       0.02348   0.97634   0.86084
N          N       0.97652   0.97634   0.63916
N          N       0.52348   0.47634   0.86084
N          N       0.47652   0.47634   0.63916
C          C       0.24721   0.94086   0.88973
C          C       0.75279   0.94086   0.61027
C          C       0.74721   0.44086   0.88973
C          C       0.25279   0.44086   0.61027
N          N       0.23855   0.96472   0.85862
N          N       0.76145   0.96472   0.64138
N          N       0.73855   0.46472   0.85862
N          N       0.26145   0.46472   0.64138
C          C       0.96880   0.32636   0.91841
C          C       0.03120   0.32636   0.58159
C          C       0.46880   0.82636   0.91841
C          C       0.53120   0.82636   0.58159
C          C       0.95238   0.30503   0.89292
C          C       0.04762   0.30503   0.60708
C          C       0.45238   0.80503   0.89292
C          C       0.54762   0.80503   0.60708
C          C       0.95698   0.27560   0.86785
C          C       0.04302   0.27560   0.63214
C          C       0.45698   0.77560   0.86785
C          C       0.54302   0.77560   0.63214
C          C       0.97767   0.26748   0.86822
C          C       0.02233   0.26748   0.63177
C          C       0.47767   0.76748   0.86822
C          C       0.52233   0.76748   0.63177
C          C       0.99414   0.28886   0.89341
C          C       0.00586   0.28886   0.60659
C          C       0.49414   0.78886   0.89341
C          C       0.50586   0.78886   0.60659
C          C       0.98949   0.31822   0.91866
C          C       0.01051   0.31822   0.58134
C          C       0.48949   0.81822   0.91866
C          C       0.51051   0.81822   0.58134
H          H       0.29478   0.25978   0.92549
H          H       0.70522   0.25978   0.57451
H          H       0.79478   0.75978   0.92549
H          H       0.20522   0.75978   0.57451
H          H       0.32742   0.29031   0.91603
H          H       0.67258   0.29031   0.58397
H          H       0.82742   0.79031   0.91603
H          H       0.17258   0.79031   0.58397
H          H       0.28960   0.36113   0.80845
H          H       0.71040   0.36113   0.69156
H          H       0.78960   0.86113   0.80845
H          H       0.21040   0.86113   0.69156
H          H       0.25691   0.33018   0.81661
H          H       0.74309   0.33018   0.68339
H          H       0.75691   0.83018   0.81661
H          H       0.24309   0.83018   0.68339
H          H       0.94851   0.89739   0.76616
H          H       0.05149   0.89739   0.73384
H          H       0.44851   0.39739   0.76616
H          H       0.55149   0.39739   0.73384
H          H       0.95585   0.95268   0.90210
H          H       0.04415   0.95268   0.59790
H          H       0.45585   0.45268   0.90210
H          H       0.54415   0.45268   0.59790
H          H       0.99193   0.97249   0.89903
H          H       0.00807   0.97249   0.60098
H          H       0.49193   0.47249   0.89903
H          H       0.50807   0.47249   0.60098
H          H       0.98447   0.91779   0.76289
H          H       0.01553   0.91779   0.73712
H          H       0.48447   0.41779   0.76289
H          H       0.51553   0.41779   0.73712
H          H       0.27258   0.95353   0.82840
H          H       0.72742   0.95353   0.67160
H          H       0.77258   0.45353   0.82840
H          H       0.22742   0.45353   0.67160
H          H       0.30745   0.92413   0.83237
H          H       0.69255   0.92413   0.66763
H          H       0.80745   0.42413   0.83237
H          H       0.19255   0.42413   0.66763
H          H       0.30000   0.85814   0.95108
H          H       0.70000   0.85814   0.54892
H          H       0.80000   0.35814   0.95108
H          H       0.20000   0.35814   0.54892
H          H       0.26569   0.88750   0.94809
H          H       0.73431   0.88750   0.55191
H          H       0.76569   0.38750   0.94809
H          H       0.23431   0.38750   0.55191
H          H       0.15090   0.25893   0.86215
H          H       0.84910   0.25893   0.63784
H          H       0.65090   0.75893   0.86215
H          H       0.34910   0.75893   0.63784
H          H       0.11337   0.25820   0.86418
H          H       0.88663   0.25820   0.63582
H          H       0.61337   0.75820   0.86418
H          H       0.38663   0.75820   0.63582
H          H       0.11480   0.98528   0.86335
H          H       0.88520   0.98528   0.63665
H          H       0.61480   0.48528   0.86335
H          H       0.38520   0.48528   0.63665
H          H       0.15244   0.98581   0.86256
H          H       0.84756   0.98581   0.63744
H          H       0.65244   0.48581   0.86256
H          H       0.34756   0.48581   0.63744
H          H       0.05384   0.15304   0.85917
H          H       0.94616   0.15304   0.64083
H          H       0.55384   0.65304   0.85917
H          H       0.44616   0.65304   0.64083
H          H       0.05414   0.08803   0.85799
H          H       0.94586   0.08803   0.64201
H          H       0.55414   0.58803   0.85799
H          H       0.44586   0.58803   0.64201
H          H       0.21063   0.09078   0.85653
H          H       0.78937   0.09078   0.64347
H          H       0.71063   0.59078   0.85653
H          H       0.28937   0.59078   0.64347
H          H       0.21030   0.15579   0.85681
H          H       0.78970   0.15579   0.64318
H          H       0.71030   0.65579   0.85681
H          H       0.28970   0.65579   0.64318
H          H       0.25610   0.25768   0.91084
H          H       0.74390   0.25768   0.58916
H          H       0.75610   0.75768   0.91084
H          H       0.24390   0.75768   0.58916
H          H       0.21055   0.24506   0.77272
H          H       0.78945   0.24506   0.72728
H          H       0.71055   0.74506   0.77272
H          H       0.28945   0.74506   0.72728
H          H       0.17998   0.20625   0.77730
H          H       0.82002   0.20625   0.72269
H          H       0.67998   0.70625   0.77730
H          H       0.32002   0.70625   0.72269
H          H       0.19107   0.23031   0.92891
H          H       0.80893   0.23031   0.57109
H          H       0.69107   0.73031   0.92891
H          H       0.30893   0.73031   0.57109
H          H       0.22098   0.27071   0.92358
H          H       0.77902   0.27071   0.57642
H          H       0.72098   0.77071   0.92358
H          H       0.27902   0.77071   0.57642
H          H       0.19048   0.01660   0.93257
H          H       0.80952   0.01660   0.56743
H          H       0.69048   0.51660   0.93257
H          H       0.30952   0.51660   0.56743
H          H       0.22090   0.97585   0.93361
H          H       0.77910   0.97585   0.56639
H          H       0.72090   0.47585   0.93361
H          H       0.27910   0.47585   0.56639
H          H       0.21511   0.99905   0.78323
H          H       0.78489   0.99905   0.71677
H          H       0.71511   0.49905   0.78323
H          H       0.28489   0.49905   0.71677
H          H       0.18420   0.03810   0.78154
H          H       0.81580   0.03810   0.71846
H          H       0.68420   0.53810   0.78154
H          H       0.31580   0.53810   0.71846
H          H       0.06910   0.02894   0.78175
H          H       0.93090   0.02894   0.71825
H          H       0.56910   0.52894   0.78175
H          H       0.43090   0.52894   0.71825
H          H       0.03650   0.99439   0.78159
H          H       0.96350   0.99439   0.71840
H          H       0.53650   0.49439   0.78159
H          H       0.46350   0.49439   0.71840
H          H       0.05439   0.99189   0.93701
H          H       0.94561   0.99189   0.56298
H          H       0.55439   0.49189   0.93701
H          H       0.44561   0.49189   0.56298
H          H       0.08749   0.02472   0.93716
H          H       0.91251   0.02472   0.56284
H          H       0.58749   0.52472   0.93716
H          H       0.41251   0.52472   0.56284
H          H       0.06522   0.20720   0.78313
H          H       0.93478   0.20720   0.71687
H          H       0.56522   0.70720   0.78313
H          H       0.43478   0.70720   0.71687
H          H       0.03134   0.23666   0.78632
H          H       0.96866   0.23666   0.71368
H          H       0.53134   0.73666   0.78632
H          H       0.46866   0.73666   0.71368
H          H       0.05613   0.25638   0.93835
H          H       0.94387   0.25638   0.56165
H          H       0.55613   0.75638   0.93835
H          H       0.44387   0.75638   0.56165
H          H       0.08954   0.22502   0.93589
H          H       0.91046   0.22502   0.56412
H          H       0.58954   0.72502   0.93589
H          H       0.41046   0.72502   0.56412
H          H       0.02903   0.29210   0.92427
H          H       0.97097   0.29210   0.57574
H          H       0.52903   0.79210   0.92427
H          H       0.47097   0.79210   0.57574
H          H       0.01570   0.95373   0.79235
H          H       0.98430   0.95373   0.70765
H          H       0.51570   0.45373   0.79235
H          H       0.48430   0.45373   0.70765
H          H       0.23955   0.93310   0.91913
H          H       0.76045   0.93310   0.58088
H          H       0.73955   0.43310   0.91913
H          H       0.26045   0.43310   0.58088
H          H       0.96535   0.35037   0.93897
H          H       0.03465   0.35037   0.56103
H          H       0.46535   0.85037   0.93897
H          H       0.53465   0.85037   0.56103
H          H       0.94387   0.25807   0.84698
H          H       0.05613   0.25807   0.65302
H          H       0.44387   0.75807   0.84698
H          H       0.55613   0.75807   0.65302
H          H       0.98127   0.24338   0.84801
H          H       0.01873   0.24338   0.65199
H          H       0.48127   0.74338   0.84801
H          H       0.51873   0.74338   0.65199
H          H       0.00272   0.33550   0.93952
H          H       0.99728   0.33550   0.56048
H          H       0.50272   0.83550   0.93952
H          H       0.49728   0.83550   0.56048
O          O       0.63133   0.47144   0.67522
O          O       0.36867   0.47144   0.82478
O          O       0.13133   0.97144   0.67522
O          O       0.86867   0.97144   0.82478
O          O       0.61281   0.43706   0.60730
O          O       0.38719   0.43706   0.89271
O          O       0.11281   0.93706   0.60730
O          O       0.88719   0.93706   0.89271
O          O       0.64847   0.43956   0.61184
O          O       0.35153   0.43956   0.88816
O          O       0.14847   0.93956   0.61184
O          O       0.85153   0.93956   0.88816
O          O       0.64935   0.41808   0.69781
O          O       0.35065   0.41808   0.80219
O          O       0.14935   0.91808   0.69781
O          O       0.85065   0.91808   0.80219
P          P       0.63387   0.43782   0.65162
P          P       0.36613   0.43782   0.84839
P          P       0.13387   0.93782   0.65162
P          P       0.86613   0.93782   0.84839
C          C       0.57058   0.41086   0.66108
C          C       0.42942   0.41086   0.83891
C          C       0.07058   0.91086   0.66108
C          C       0.92942   0.91086   0.83891
C          C       0.57819   0.37786   0.68196
C          C       0.42181   0.37786   0.81805
C          C       0.07819   0.87786   0.68196
C          C       0.92181   0.87786   0.81805
C          C       0.59830   0.36553   0.67976
C          C       0.40170   0.36553   0.82024
C          C       0.09830   0.86553   0.67976
C          C       0.90170   0.86553   0.82024
C          C       0.61069   0.38636   0.65698
C          C       0.38931   0.38636   0.84303
C          C       0.11069   0.88636   0.65698
C          C       0.88931   0.88636   0.84303
C          C       0.60242   0.41830   0.63492
C          C       0.39758   0.41830   0.86509
C          C       0.10242   0.91830   0.63492
C          C       0.89758   0.91830   0.86509
C          C       0.58303   0.43090   0.63861
C          C       0.41697   0.43090   0.86139
C          C       0.08303   0.93090   0.63861
C          C       0.91697   0.93090   0.86139
C          C       0.63033   0.37085   0.64887
C          C       0.36967   0.37085   0.85114
C          C       0.13033   0.87085   0.64887
C          C       0.86967   0.87085   0.85114
C          C       0.64906   0.38837   0.67026
C          C       0.35094   0.38837   0.82974
C          C       0.14906   0.88837   0.67026
C          C       0.85094   0.88837   0.82974
C          C       0.66818   0.37557   0.66530
C          C       0.33182   0.37557   0.83469
C          C       0.16818   0.87557   0.66530
C          C       0.83182   0.87557   0.83469
C          C       0.66945   0.34404   0.64089
C          C       0.33055   0.34404   0.85911
C          C       0.16945   0.84404   0.64089
C          C       0.83055   0.84404   0.85911
C          C       0.65094   0.32449   0.62172
C          C       0.34906   0.32449   0.87828
C          C       0.15094   0.82449   0.62172
C          C       0.84906   0.82449   0.87828
C          C       0.63132   0.33795   0.62600
C          C       0.36868   0.33795   0.87400
C          C       0.13132   0.83795   0.62600
C          C       0.86868   0.83795   0.87400
C          C       0.56623   0.35681   0.70527
C          C       0.43377   0.35681   0.79473
C          C       0.06623   0.85681   0.70527
C          C       0.93377   0.85681   0.79473
C          C       0.57349   0.32398   0.72461
C          C       0.42651   0.32398   0.77539
C          C       0.07349   0.82398   0.72461
C          C       0.92651   0.82398   0.77539
C          C       0.59283   0.31155   0.72110
C          C       0.40717   0.31155   0.77890
C          C       0.09283   0.81155   0.72110
C          C       0.90717   0.81155   0.77890
C          C       0.60518   0.33207   0.69915
C          C       0.39482   0.33207   0.80085
C          C       0.10518   0.83207   0.69915
C          C       0.89482   0.83207   0.80085
C          C       0.61322   0.31765   0.60825
C          C       0.38678   0.31765   0.89175
C          C       0.11322   0.81765   0.60825
C          C       0.88678   0.81765   0.89175
C          C       0.61433   0.28492   0.58664
C          C       0.38567   0.28492   0.91336
C          C       0.11433   0.78492   0.58664
C          C       0.88567   0.78492   0.91336
C          C       0.63341   0.27180   0.58220
C          C       0.36659   0.27180   0.91780
C          C       0.13341   0.77180   0.58220
C          C       0.86659   0.77180   0.91780
C          C       0.65157   0.29135   0.59966
C          C       0.34843   0.29135   0.90034
C          C       0.15157   0.79135   0.59966
C          C       0.84843   0.79135   0.90034
Cl         Cl      0.55823   0.29849   0.75369
Cl         Cl      0.44177   0.29849   0.74631
Cl         Cl      0.05823   0.79849   0.75369
Cl         Cl      0.94177   0.79849   0.74631
Cl         Cl      0.63465   0.23036   0.55522
Cl         Cl      0.36535   0.23036   0.94478
Cl         Cl      0.13465   0.73036   0.55522
Cl         Cl      0.86535   0.73036   0.94478
H          H       0.57745   0.45796   0.62294
H          H       0.42255   0.45796   0.87706
H          H       0.07745   0.95796   0.62294
H          H       0.92255   0.95796   0.87706
H          H       0.68309   0.39090   0.68132
H          H       0.31691   0.39090   0.81868
H          H       0.18309   0.89090   0.68132
H          H       0.81691   0.89090   0.81868
H          H       0.55039   0.36659   0.70851
H          H       0.44961   0.36659   0.79149
H          H       0.05039   0.86659   0.70851
H          H       0.94961   0.86659   0.79149
H          H       0.59863   0.28446   0.73623
H          H       0.40137   0.28446   0.76377
H          H       0.09863   0.78446   0.73623
H          H       0.90137   0.78446   0.76377
H          H       0.62101   0.32151   0.69698
H          H       0.37899   0.32151   0.80302
H          H       0.12101   0.82151   0.69698
H          H       0.87899   0.82151   0.80302
H          H       0.59748   0.32793   0.61148
H          H       0.40252   0.32793   0.88851
H          H       0.09748   0.82793   0.61148
H          H       0.90252   0.82793   0.88851
H          H       0.59958   0.26871   0.57246
H          H       0.40042   0.26871   0.92754
H          H       0.09958   0.76871   0.57246
H          H       0.90042   0.76871   0.92754
H          H       0.66704   0.28021   0.59588
H          H       0.33296   0.28021   0.90412
H          H       0.16704   0.78021   0.59588
H          H       0.83296   0.78021   0.90412
O          O       0.84262   0.27820   0.86490
O          O       0.15738   0.27820   0.63510
O          O       0.34262   0.77820   0.86490
O          O       0.65738   0.77820   0.63510
O          O       0.86215   0.29990   0.93669
O          O       0.13785   0.29990   0.56331
O          O       0.36215   0.79990   0.93669
O          O       0.63785   0.79990   0.56331
O          O       0.88091   0.25212   0.90490
O          O       0.11909   0.25212   0.59510
O          O       0.38091   0.75212   0.90490
O          O       0.61909   0.75212   0.59510
O          O       0.87657   0.28975   0.84118
O          O       0.12343   0.28975   0.65882
O          O       0.37657   0.78975   0.84118
O          O       0.62343   0.78975   0.65882
P          P       0.86808   0.28359   0.88922
P          P       0.13192   0.28359   0.61078
P          P       0.36808   0.78359   0.88922
P          P       0.63192   0.78359   0.61078
C          C       0.82741   0.37517   0.89311
C          C       0.17259   0.37517   0.60690
C          C       0.32741   0.87517   0.89311
C          C       0.67259   0.87517   0.60690
C          C       0.84019   0.39617   0.87140
C          C       0.15981   0.39617   0.62860
C          C       0.34019   0.89617   0.87140
C          C       0.65981   0.89617   0.62860
C          C       0.86029   0.38361   0.86948
C          C       0.13971   0.38361   0.63051
C          C       0.36029   0.88361   0.86948
C          C       0.63971   0.88361   0.63051
C          C       0.86741   0.35007   0.88902
C          C       0.13259   0.35007   0.61098
C          C       0.36741   0.85007   0.88902
C          C       0.63259   0.85007   0.61098
C          C       0.85476   0.33042   0.91202
C          C       0.14524   0.33042   0.58798
C          C       0.35476   0.83042   0.91202
C          C       0.64524   0.83042   0.58798
C          C       0.83478   0.34223   0.91233
C          C       0.16522   0.34223   0.58767
C          C       0.33478   0.84223   0.91233
C          C       0.66522   0.84223   0.58767
C          C       0.88958   0.33954   0.89298
C          C       0.11042   0.33954   0.60702
C          C       0.38958   0.83954   0.89298
C          C       0.61042   0.83954   0.60702
C          C       0.89290   0.30889   0.86822
C          C       0.10710   0.30889   0.63178
C          C       0.39290   0.80889   0.86822
C          C       0.60710   0.80889   0.63178
C          C       0.91303   0.29732   0.86919
C          C       0.08697   0.29732   0.63081
C          C       0.41303   0.79732   0.86919
C          C       0.58697   0.79732   0.63081
C          C       0.93049   0.31671   0.89287
C          C       0.06951   0.31671   0.60713
C          C       0.43049   0.81671   0.89287
C          C       0.56951   0.81671   0.60713
C          C       0.92756   0.34907   0.91543
C          C       0.07244   0.34907   0.58457
C          C       0.42756   0.84907   0.91543
C          C       0.57244   0.84907   0.58457
C          C       0.90698   0.36056   0.91521
C          C       0.09302   0.36056   0.58479
C          C       0.40698   0.86056   0.91521
C          C       0.59302   0.86056   0.58479
C          C       0.83337   0.42950   0.85125
C          C       0.16663   0.42950   0.64874
C          C       0.33337   0.92950   0.85125
C          C       0.66663   0.92950   0.64874
C          C       0.84617   0.45051   0.83112
C          C       0.15383   0.45051   0.66888
C          C       0.34617   0.95051   0.83112
C          C       0.65383   0.95051   0.66888
C          C       0.86601   0.43864   0.83064
C          C       0.13399   0.43864   0.66936
C          C       0.36601   0.93864   0.83064
C          C       0.63399   0.93864   0.66936
C          C       0.87301   0.40553   0.84937
C          C       0.12699   0.40553   0.65062
C          C       0.37301   0.90553   0.84937
C          C       0.62699   0.90553   0.65062
C          C       0.90431   0.39330   0.93631
C          C       0.09569   0.39330   0.56369
C          C       0.40431   0.89330   0.93631
C          C       0.59569   0.89330   0.56369
C          C       0.92146   0.41427   0.95730
C          C       0.07854   0.41427   0.54270
C          C       0.42146   0.91427   0.95730
C          C       0.57854   0.91427   0.54270
C          C       0.94155   0.40307   0.95778
C          C       0.05845   0.40307   0.54222
C          C       0.44155   0.90307   0.95778
C          C       0.55845   0.90307   0.54222
C          C       0.94459   0.37081   0.93696
C          C       0.05541   0.37081   0.56304
C          C       0.44459   0.87081   0.93696
C          C       0.55541   0.87081   0.56304
Cl         Cl      0.83712   0.49185   0.80606
Cl         Cl      0.16288   0.49185   0.69394
Cl         Cl      0.33712   0.99185   0.80606
Cl         Cl      0.66288   0.99185   0.69394
Cl         Cl      0.96305   0.42985   0.98401
Cl         Cl      0.03695   0.42985   0.51599
Cl         Cl      0.46305   0.92985   0.98401
Cl         Cl      0.53695   0.92985   0.51599
H          H       0.82448   0.32453   0.92859
H          H       0.17552   0.32453   0.57141
H          H       0.32448   0.82453   0.92859
H          H       0.67552   0.82453   0.57141
H          H       0.91541   0.27168   0.85047
H          H       0.08459   0.27168   0.64953
H          H       0.41541   0.77168   0.85047
H          H       0.58459   0.77168   0.64953
H          H       0.81718   0.43959   0.85129
H          H       0.18282   0.43959   0.64870
H          H       0.31718   0.93959   0.85129
H          H       0.68282   0.93959   0.64870
H          H       0.87661   0.45605   0.81487
H          H       0.12339   0.45605   0.68513
H          H       0.37661   0.95605   0.81487
H          H       0.62339   0.95605   0.68513
H          H       0.88923   0.39624   0.84830
H          H       0.11077   0.39624   0.65170
H          H       0.38923   0.89624   0.84830
H          H       0.61077   0.89624   0.65170
H          H       0.88802   0.40289   0.93633
H          H       0.11198   0.40289   0.56367
H          H       0.38802   0.90289   0.93633
H          H       0.61198   0.90289   0.56367
H          H       0.91910   0.44073   0.97421
H          H       0.08090   0.44073   0.52579
H          H       0.41910   0.94073   0.97421
H          H       0.58090   0.94073   0.52579
H          H       0.96110   0.36210   0.93753
H          H       0.03890   0.36210   0.56247
H          H       0.46110   0.86210   0.93753
H          H       0.53890   0.86210   0.56247
H          H       0.36043   0.45311   0.92069
H          H       0.63957   0.45311   0.57931
H          H       0.86043   0.95311   0.92069
H          H       0.13957   0.95311   0.57931
H          H       0.33361   0.79623   0.88237
H          H       0.66639   0.79623   0.61763
H          H       0.83361   0.29623   0.88237
H          H       0.16639   0.29623   0.61763
