data_crystal

_cell_length_a    66.38000
_cell_length_b    37.65000
_cell_length_c    29.22000
_cell_angle_alpha 90.00000
_cell_angle_beta  104.50000
_cell_angle_gamma 90.00000

_space_group_name_Hall 'P 1'
_space_group_name_H-M_alt 'P 1'

loop_
_symmetry_equiv_pos_as_xyz
 'x,y,z'

loop_
_atom_site_label
_atom_site_type_symbol
_atom_site_fract_x
_atom_site_fract_y
_atom_site_fract_z
C          C       0.19002   0.28916   0.34962
C          C       0.80998   0.28916   0.15038
C          C       0.69002   0.78916   0.34962
C          C       0.30998   0.78916   0.15038
C          C       0.20893   0.27591   0.37779
C          C       0.79107   0.27591   0.12221
C          C       0.70893   0.77591   0.37779
C          C       0.29107   0.77591   0.12221
C          C       0.22797   0.28979   0.37380
C          C       0.77203   0.28979   0.12620
C          C       0.72797   0.78979   0.37380
C          C       0.27203   0.78979   0.12620
C          C       0.22863   0.31756   0.34204
C          C       0.77137   0.31756   0.15796
C          C       0.72863   0.81756   0.34204
C          C       0.27137   0.81756   0.15796
C          C       0.20983   0.33080   0.31374
C          C       0.79017   0.33080   0.18626
C          C       0.70983   0.83080   0.31374
C          C       0.29017   0.83080   0.18626
C          C       0.19068   0.31674   0.31735
C          C       0.80932   0.31674   0.18265
C          C       0.69068   0.81674   0.31735
C          C       0.30932   0.81674   0.18265
C          C       0.87564   0.90910   0.27509
C          C       0.12436   0.90910   0.22491
C          C       0.37564   0.40910   0.27509
C          C       0.62436   0.40910   0.22491
C          C       0.86784   0.91774   0.31413
C          C       0.13216   0.91774   0.18587
C          C       0.36784   0.41774   0.31413
C          C       0.63216   0.41774   0.18587
C          C       0.87975   0.93948   0.34981
C          C       0.12025   0.93948   0.15019
C          C       0.37975   0.43948   0.34981
C          C       0.62025   0.43948   0.15019
C          C       0.89893   0.95311   0.34605
C          C       0.10107   0.95311   0.15395
C          C       0.39893   0.45311   0.34605
C          C       0.60107   0.45311   0.15395
C          C       0.90655   0.94514   0.30638
C          C       0.09345   0.94514   0.19362
C          C       0.40655   0.44514   0.30638
C          C       0.59345   0.44514   0.19362
C          C       0.89473   0.92282   0.27115
C          C       0.10527   0.92282   0.22885
C          C       0.39473   0.42282   0.27115
C          C       0.60527   0.42282   0.22885
C          C       0.18523   0.92791   0.36668
C          C       0.81477   0.92791   0.13332
C          C       0.68523   0.42791   0.36668
C          C       0.31477   0.42791   0.13332
C          C       0.19553   0.94051   0.33331
C          C       0.80447   0.94051   0.16669
C          C       0.69553   0.44051   0.33331
C          C       0.30447   0.44051   0.16669
C          C       0.21562   0.92821   0.33378
C          C       0.78438   0.92821   0.16622
C          C       0.71562   0.42821   0.33378
C          C       0.28438   0.42821   0.16622
C          C       0.22580   0.90297   0.36731
C          C       0.77420   0.90297   0.13269
C          C       0.72580   0.40297   0.36731
C          C       0.27420   0.40297   0.13269
C          C       0.21524   0.88994   0.39979
C          C       0.78476   0.88994   0.10021
C          C       0.71524   0.38994   0.39979
C          C       0.28476   0.38994   0.10021
C          C       0.19526   0.90226   0.39964
C          C       0.80474   0.90226   0.10036
C          C       0.69526   0.40226   0.39964
C          C       0.30474   0.40226   0.10036
C          C       0.05830   0.23249   0.33720
C          C       0.94170   0.23249   0.16280
C          C       0.55830   0.73249   0.33720
C          C       0.44170   0.73249   0.16280
C          C       0.03783   0.23209   0.33827
C          C       0.96217   0.23209   0.16173
C          C       0.53783   0.73209   0.33827
C          C       0.46217   0.73209   0.16173
C          C       0.03199   0.19672   0.33734
C          C       0.96801   0.19672   0.16266
C          C       0.53199   0.69672   0.33734
C          C       0.46801   0.69672   0.16266
N          N       0.04828   0.17506   0.33598
N          N       0.95172   0.17506   0.16402
N          N       0.54828   0.67506   0.33598
N          N       0.45172   0.67506   0.16402
C          C       0.06437   0.19736   0.33569
C          C       0.93563   0.19736   0.16431
C          C       0.56437   0.69736   0.33569
C          C       0.43563   0.69736   0.16431
C          C       0.08433   0.18704   0.33287
C          C       0.91567   0.18704   0.16713
C          C       0.58433   0.68704   0.33287
C          C       0.41567   0.68704   0.16713
C          C       0.01159   0.18573   0.33593
C          C       0.98841   0.18573   0.16407
C          C       0.51159   0.68573   0.33593
C          C       0.48841   0.68573   0.16407
C          C       0.03900   0.01155   0.33767
C          C       0.96100   0.01155   0.16233
C          C       0.53900   0.51155   0.33767
C          C       0.46100   0.51155   0.16233
C          C       0.05951   0.01183   0.33720
C          C       0.94049   0.01183   0.16280
C          C       0.55951   0.51183   0.33720
C          C       0.44049   0.51183   0.16280
C          C       0.06523   0.04707   0.33567
C          C       0.93477   0.04707   0.16433
C          C       0.56523   0.54707   0.33567
C          C       0.43477   0.54707   0.16433
N          N       0.04887   0.06883   0.33560
N          N       0.95113   0.06883   0.16440
N          N       0.54887   0.56883   0.33560
N          N       0.45113   0.56883   0.16440
C          C       0.03278   0.04667   0.33652
C          C       0.96722   0.04667   0.16348
C          C       0.53278   0.54667   0.33652
C          C       0.46722   0.54667   0.16348
C          C       0.08517   0.05800   0.33339
C          C       0.91483   0.05800   0.16661
C          C       0.58517   0.55800   0.33339
C          C       0.41483   0.55800   0.16661
C          C       0.01229   0.05701   0.33528
C          C       0.98771   0.05701   0.16472
C          C       0.51229   0.55701   0.33528
C          C       0.48771   0.55701   0.16472
C          C       0.98467   0.13814   0.33454
C          C       0.01533   0.13814   0.16546
C          C       0.48467   0.63814   0.33454
C          C       0.51533   0.63814   0.16546
C          C       0.98484   0.10341   0.33400
C          C       0.01516   0.10341   0.16600
C          C       0.48484   0.60341   0.33400
C          C       0.51516   0.60341   0.16600
C          C       0.00602   0.09255   0.33426
C          C       0.99398   0.09255   0.16574
C          C       0.50602   0.59255   0.33426
C          C       0.49398   0.59255   0.16574
N          N       0.01828   0.12148   0.33463
N          N       0.98172   0.12148   0.16537
N          N       0.51828   0.62148   0.33463
N          N       0.48172   0.62148   0.16537
C          C       0.00578   0.14990   0.33488
C          C       0.99422   0.14990   0.16512
C          C       0.50578   0.64990   0.33488
C          C       0.49422   0.64990   0.16512
C          C       0.11157   0.10560   0.33221
C          C       0.88843   0.10560   0.16779
C          C       0.61157   0.60560   0.33221
C          C       0.38843   0.60560   0.16779
C          C       0.11139   0.14033   0.33235
C          C       0.88861   0.14033   0.16765
C          C       0.61139   0.64033   0.33235
C          C       0.38861   0.64033   0.16765
C          C       0.09022   0.15126   0.33255
C          C       0.90978   0.15126   0.16745
C          C       0.59022   0.65126   0.33255
C          C       0.40978   0.65126   0.16745
N          N       0.07794   0.12240   0.33278
N          N       0.92206   0.12240   0.16722
N          N       0.57794   0.62240   0.33278
N          N       0.42206   0.62240   0.16722
C          C       0.09059   0.09390   0.33240
C          C       0.90941   0.09390   0.16760
C          C       0.59059   0.59390   0.33240
C          C       0.40941   0.59390   0.16760
Cu         Cu      0.04794   0.12192   0.33375
Cu         Cu      0.95206   0.12192   0.16625
Cu         Cu      0.54794   0.62192   0.33375
Cu         Cu      0.45206   0.62192   0.16625
C          C       0.16987   0.27306   0.35444
C          C       0.83013   0.27306   0.14556
C          C       0.66987   0.77306   0.35444
C          C       0.33013   0.77306   0.14556
N          N       0.15256   0.27976   0.32049
N          N       0.84744   0.27976   0.17951
N          N       0.65256   0.77976   0.32049
N          N       0.34744   0.77976   0.17951
C          C       0.13466   0.25786   0.32416
C          C       0.86534   0.25786   0.17584
C          C       0.63466   0.75786   0.32416
C          C       0.36534   0.75786   0.17584
C          C       0.12274   0.24087   0.28371
C          C       0.87726   0.24087   0.21629
C          C       0.62274   0.74087   0.28371
C          C       0.37726   0.74087   0.21629
C          C       0.10626   0.21845   0.28658
C          C       0.89374   0.21845   0.21342
C          C       0.60626   0.71845   0.28658
C          C       0.39374   0.71845   0.21342
C          C       0.10127   0.21281   0.32999
C          C       0.89873   0.21281   0.17001
C          C       0.60127   0.71281   0.32999
C          C       0.39873   0.71281   0.17001
C          C       0.11236   0.23168   0.37001
C          C       0.88764   0.23168   0.12999
C          C       0.61236   0.73168   0.37001
C          C       0.38764   0.73168   0.12999
C          C       0.12871   0.25463   0.36682
C          C       0.87129   0.25463   0.13318
C          C       0.62871   0.75463   0.36682
C          C       0.37129   0.75463   0.13318
C          C       0.10159   0.03063   0.33274
C          C       0.89841   0.03063   0.16726
C          C       0.60159   0.53063   0.33274
C          C       0.39841   0.53063   0.16726
C          C       0.99611   0.02911   0.33508
C          C       0.00389   0.02911   0.16492
C          C       0.49611   0.52911   0.33508
C          C       0.50389   0.52911   0.16492
C          C       0.99483   0.21238   0.33530
C          C       0.00517   0.21238   0.16470
C          C       0.49483   0.71238   0.33530
C          C       0.50517   0.71238   0.16470
C          C       0.11179   0.01279   0.37433
C          C       0.88821   0.01279   0.12567
C          C       0.61179   0.51279   0.37433
C          C       0.38821   0.51279   0.12567
C          C       0.12874   0.99020   0.37511
C          C       0.87126   0.99020   0.12489
C          C       0.62874   0.49020   0.37511
C          C       0.37126   0.49020   0.12489
C          C       0.13597   0.98512   0.33410
C          C       0.86403   0.98512   0.16590
C          C       0.63597   0.48512   0.33410
C          C       0.36403   0.48512   0.16590
C          C       0.12556   0.00264   0.29246
C          C       0.87444   0.00264   0.20754
C          C       0.62556   0.50264   0.29246
C          C       0.37444   0.50264   0.20754
C          C       0.10844   0.02476   0.29160
C          C       0.89156   0.02476   0.20840
C          C       0.60844   0.52476   0.29160
C          C       0.39156   0.52476   0.20840
C          C       0.98186   0.02057   0.29235
C          C       0.01814   0.02057   0.20765
C          C       0.48186   0.52057   0.29235
C          C       0.51814   0.52057   0.20765
C          C       0.96352   0.00217   0.29200
C          C       0.03648   0.00217   0.20800
C          C       0.46352   0.50217   0.29200
C          C       0.53648   0.50217   0.20800
C          C       0.95888   0.99227   0.33469
C          C       0.04112   0.99227   0.16531
C          C       0.45888   0.49227   0.33469
C          C       0.54112   0.49227   0.16531
C          C       0.97332   0.00021   0.37735
C          C       0.02668   0.00021   0.12265
C          C       0.47332   0.50021   0.37735
C          C       0.52668   0.50021   0.12265
C          C       0.99185   0.01817   0.37761
C          C       0.00815   0.01817   0.12239
C          C       0.49185   0.51817   0.37761
C          C       0.50815   0.51817   0.12239
C          C       0.97889   0.21700   0.29391
C          C       0.02111   0.21700   0.20609
C          C       0.47889   0.71700   0.29391
C          C       0.52111   0.71700   0.20609
C          C       0.96020   0.23369   0.29546
C          C       0.03980   0.23369   0.20454
C          C       0.46020   0.73369   0.29546
C          C       0.53980   0.73369   0.20454
C          C       0.95721   0.24696   0.33811
C          C       0.04279   0.24696   0.16189
C          C       0.45721   0.74696   0.33811
C          C       0.54279   0.74696   0.16189
C          C       0.97370   0.24435   0.37916
C          C       0.02630   0.24435   0.12084
C          C       0.47370   0.74435   0.37916
C          C       0.52630   0.74435   0.12084
C          C       0.99231   0.22705   0.37776
C          C       0.00769   0.22705   0.12224
C          C       0.49231   0.72705   0.37776
C          C       0.50769   0.72705   0.12224
C          C       0.93305   0.27727   0.36793
C          C       0.06695   0.27727   0.13207
C          C       0.43305   0.77727   0.36793
C          C       0.56695   0.77727   0.13207
N          N       0.93511   0.25550   0.33311
N          N       0.06489   0.25550   0.16689
N          N       0.43511   0.75550   0.33311
N          N       0.56489   0.75550   0.16689
C          C       0.92716   0.95947   0.30197
C          C       0.07284   0.95947   0.19803
C          C       0.42716   0.45947   0.30197
C          C       0.57284   0.45947   0.19803
N          N       0.93927   0.97623   0.33937
N          N       0.06073   0.97623   0.16063
N          N       0.43927   0.47623   0.33937
N          N       0.56073   0.47623   0.16063
C          C       0.16348   0.94053   0.36518
C          C       0.83652   0.94053   0.13482
C          C       0.66348   0.44053   0.36518
C          C       0.33652   0.44053   0.13482
N          N       0.15471   0.96475   0.33189
N          N       0.84529   0.96475   0.16811
N          N       0.65471   0.46475   0.33189
N          N       0.34529   0.46475   0.16811
C          C       0.88897   0.33369   0.39403
C          C       0.11103   0.33369   0.10597
C          C       0.38897   0.83369   0.39403
C          C       0.61103   0.83369   0.10597
C          C       0.87133   0.31486   0.36889
C          C       0.12867   0.31486   0.13111
C          C       0.37133   0.81486   0.36889
C          C       0.62867   0.81486   0.13111
C          C       0.87412   0.28419   0.34387
C          C       0.12588   0.28419   0.15613
C          C       0.37412   0.78419   0.34387
C          C       0.62588   0.78419   0.15613
C          C       0.89420   0.27239   0.34395
C          C       0.10580   0.27239   0.15605
C          C       0.39420   0.77239   0.34395
C          C       0.60580   0.77239   0.15605
C          C       0.91188   0.29126   0.36878
C          C       0.08812   0.29126   0.13122
C          C       0.41188   0.79126   0.36878
C          C       0.58812   0.79126   0.13122
C          C       0.90904   0.32187   0.39399
C          C       0.09096   0.32187   0.10601
C          C       0.40904   0.82187   0.39399
C          C       0.59096   0.82187   0.10601
O          O       0.78479   0.80922   0.30599
O          O       0.21521   0.80922   0.19401
O          O       0.28479   0.30922   0.30599
O          O       0.71521   0.30922   0.19401
O          O       0.80410   0.80541   0.36650
O          O       0.19590   0.80541   0.13350
O          O       0.30410   0.30541   0.36650
O          O       0.69590   0.30541   0.13350
O          O       0.83288   0.79929   0.32810
O          O       0.16712   0.79929   0.17190
O          O       0.33288   0.29929   0.32810
O          O       0.66712   0.29929   0.17190
O          O       0.81163   0.83018   0.26765
O          O       0.18837   0.83018   0.23236
O          O       0.31163   0.33018   0.26765
O          O       0.68837   0.33018   0.23236
P          P       0.81067   0.80763   0.31565
P          P       0.18933   0.80763   0.18435
P          P       0.31067   0.30763   0.31565
P          P       0.68933   0.30763   0.18435
C          C       0.74921   0.83262   0.33860
C          C       0.25079   0.83262   0.16140
C          C       0.24921   0.33262   0.33860
C          C       0.75079   0.33262   0.16140
C          C       0.75039   0.86684   0.31900
C          C       0.24961   0.86684   0.18100
C          C       0.25039   0.36684   0.31900
C          C       0.74961   0.36684   0.18100
C          C       0.76982   0.87978   0.31301
C          C       0.23018   0.87978   0.18699
C          C       0.26982   0.37978   0.31301
C          C       0.73018   0.37978   0.18699
C          C       0.78789   0.85835   0.32639
C          C       0.21211   0.85835   0.17361
C          C       0.28789   0.35835   0.32639
C          C       0.71211   0.35835   0.17361
C          C       0.78646   0.82510   0.34751
C          C       0.21354   0.82510   0.15249
C          C       0.28646   0.32510   0.34751
C          C       0.71354   0.32510   0.15249
C          C       0.76726   0.81199   0.35175
C          C       0.23274   0.81199   0.14825
C          C       0.26726   0.31199   0.35175
C          C       0.73274   0.31199   0.14825
C          C       0.80865   0.87415   0.32642
C          C       0.19135   0.87415   0.17358
C          C       0.30865   0.37415   0.32642
C          C       0.69135   0.37415   0.17358
C          C       0.81966   0.85843   0.29624
C          C       0.18034   0.85843   0.20376
C          C       0.31966   0.35843   0.29624
C          C       0.68034   0.35843   0.20376
C          C       0.83898   0.87167   0.29331
C          C       0.16102   0.87167   0.20669
C          C       0.33898   0.37167   0.29331
C          C       0.66102   0.37167   0.20669
C          C       0.84756   0.90195   0.31846
C          C       0.15244   0.90195   0.18154
C          C       0.34756   0.40195   0.31846
C          C       0.65244   0.40195   0.18154
C          C       0.83611   0.91980   0.34667
C          C       0.16389   0.91980   0.15333
C          C       0.33611   0.41980   0.34667
C          C       0.66389   0.41980   0.15333
C          C       0.81651   0.90586   0.35040
C          C       0.18349   0.90586   0.14960
C          C       0.31651   0.40586   0.35040
C          C       0.68349   0.40586   0.14960
C          C       0.73257   0.88854   0.30494
C          C       0.26743   0.88854   0.19506
C          C       0.23257   0.38854   0.30494
C          C       0.76743   0.38854   0.19506
C          C       0.73387   0.92251   0.28691
C          C       0.26613   0.92251   0.21309
C          C       0.23387   0.42251   0.28691
C          C       0.76613   0.42251   0.21309
C          C       0.75297   0.93545   0.28251
C          C       0.24703   0.93545   0.21749
C          C       0.25297   0.43545   0.28251
C          C       0.74703   0.43545   0.21749
C          C       0.77076   0.91436   0.29516
C          C       0.22924   0.91436   0.20484
C          C       0.27076   0.41436   0.29516
C          C       0.72924   0.41436   0.20484
C          C       0.80504   0.92455   0.37717
C          C       0.19496   0.92455   0.12283
C          C       0.30504   0.42455   0.37717
C          C       0.69496   0.42455   0.12283
C          C       0.81265   0.95617   0.39993
C          C       0.18735   0.95617   0.10007
C          C       0.31265   0.45617   0.39993
C          C       0.68735   0.45617   0.10007
C          C       0.83178   0.96974   0.39657
C          C       0.16822   0.96974   0.10343
C          C       0.33178   0.46974   0.39657
C          C       0.66822   0.46974   0.10343
C          C       0.84341   0.95178   0.37012
C          C       0.15659   0.95178   0.12988
C          C       0.34341   0.45178   0.37012
C          C       0.65659   0.45178   0.12988
Cl         Cl      0.71132   0.94879   0.26947
Cl         Cl      0.28868   0.94879   0.23053
Cl         Cl      0.21132   0.44879   0.26947
Cl         Cl      0.78868   0.44879   0.23053
Cl         Cl      0.84115   0.00978   0.42509
Cl         Cl      0.15885   0.00978   0.07491
Cl         Cl      0.34115   0.50978   0.42509
Cl         Cl      0.65885   0.50978   0.07491
H          H       0.20881   0.25365   0.40416
H          H       0.79119   0.25365   0.09584
H          H       0.70881   0.75365   0.40416
H          H       0.29119   0.75365   0.09584
H          H       0.24316   0.27859   0.39644
H          H       0.75684   0.27859   0.10356
H          H       0.74316   0.77859   0.39644
H          H       0.25684   0.77859   0.10356
H          H       0.21002   0.35315   0.28754
H          H       0.78998   0.35315   0.21246
H          H       0.71002   0.85315   0.28754
H          H       0.28998   0.85315   0.21246
H          H       0.17560   0.32778   0.29397
H          H       0.82440   0.32778   0.20603
H          H       0.67560   0.82778   0.29397
H          H       0.32440   0.82778   0.20603
H          H       0.86640   0.89081   0.24632
H          H       0.13360   0.89081   0.25368
H          H       0.36640   0.39081   0.24632
H          H       0.63360   0.39081   0.25368
H          H       0.87385   0.94621   0.38222
H          H       0.12615   0.94621   0.11778
H          H       0.37385   0.44621   0.38222
H          H       0.62615   0.44621   0.11778
H          H       0.90846   0.97075   0.37522
H          H       0.09154   0.97075   0.12478
H          H       0.40846   0.47075   0.37522
H          H       0.59154   0.47075   0.12478
H          H       0.90087   0.91592   0.23913
H          H       0.09913   0.91592   0.26087
H          H       0.40087   0.41592   0.23913
H          H       0.59913   0.41592   0.26087
H          H       0.18762   0.96079   0.30567
H          H       0.81238   0.96079   0.19433
H          H       0.68762   0.46079   0.30567
H          H       0.31238   0.46079   0.19433
H          H       0.22391   0.93866   0.30675
H          H       0.77609   0.93866   0.19325
H          H       0.72391   0.43866   0.30675
H          H       0.27609   0.43866   0.19325
H          H       0.22288   0.86904   0.42681
H          H       0.77712   0.86904   0.07319
H          H       0.72288   0.36904   0.42681
H          H       0.27712   0.36904   0.07319
H          H       0.18715   0.89121   0.42667
H          H       0.81285   0.89121   0.07333
H          H       0.68715   0.39121   0.42667
H          H       0.31285   0.39121   0.07333
H          H       0.06677   0.25887   0.33763
H          H       0.93323   0.25887   0.16237
H          H       0.56677   0.75887   0.33763
H          H       0.43323   0.75887   0.16237
H          H       0.02924   0.25814   0.33965
H          H       0.97076   0.25814   0.16035
H          H       0.52924   0.75814   0.33965
H          H       0.47076   0.75814   0.16035
H          H       0.03066   0.98522   0.33882
H          H       0.96934   0.98522   0.16118
H          H       0.53066   0.48522   0.33882
H          H       0.46934   0.48522   0.16118
H          H       0.06831   0.98574   0.33803
H          H       0.93169   0.98574   0.16197
H          H       0.56831   0.48574   0.33803
H          H       0.43169   0.48574   0.16197
H          H       0.96970   0.15297   0.33464
H          H       0.03030   0.15297   0.16536
H          H       0.46970   0.65297   0.33464
H          H       0.53030   0.65297   0.16536
H          H       0.97001   0.08797   0.33346
H          H       0.02999   0.08797   0.16654
H          H       0.47001   0.58797   0.33346
H          H       0.52999   0.58797   0.16654
H          H       0.12650   0.09072   0.33200
H          H       0.87350   0.09072   0.16800
H          H       0.62650   0.59072   0.33200
H          H       0.37350   0.59072   0.16800
H          H       0.12617   0.15572   0.33228
H          H       0.87383   0.15572   0.16772
H          H       0.62617   0.65572   0.33228
H          H       0.37383   0.65572   0.16772
H          H       0.16907   0.25561   0.38582
H          H       0.83093   0.25561   0.11418
H          H       0.66907   0.75561   0.38582
H          H       0.33093   0.75561   0.11418
H          H       0.12643   0.24524   0.24807
H          H       0.87357   0.24524   0.25193
H          H       0.62643   0.74524   0.24807
H          H       0.37357   0.74524   0.25193
H          H       0.09675   0.20460   0.25351
H          H       0.90325   0.20460   0.24649
H          H       0.59675   0.70460   0.25351
H          H       0.40325   0.70460   0.24649
H          H       0.10812   0.22843   0.40525
H          H       0.89188   0.22843   0.09475
H          H       0.60812   0.72843   0.40525
H          H       0.39188   0.72843   0.09475
H          H       0.13711   0.27062   0.39906
H          H       0.86289   0.27062   0.10094
H          H       0.63711   0.77062   0.39906
H          H       0.36289   0.77062   0.10094
H          H       0.10635   0.01654   0.40804
H          H       0.89365   0.01654   0.09196
H          H       0.60635   0.51654   0.40804
H          H       0.39365   0.51654   0.09196
H          H       0.13676   0.97579   0.40908
H          H       0.86324   0.97579   0.09092
H          H       0.63676   0.47579   0.40908
H          H       0.36324   0.47579   0.09092
H          H       0.13098   0.99899   0.25870
H          H       0.86902   0.99899   0.24130
H          H       0.63098   0.49899   0.25870
H          H       0.36902   0.49899   0.24130
H          H       0.10007   0.03804   0.25701
H          H       0.89993   0.03804   0.24299
H          H       0.60007   0.53804   0.25701
H          H       0.39993   0.53804   0.24299
H          H       0.98515   0.02865   0.25733
H          H       0.01485   0.02865   0.24267
H          H       0.48515   0.52865   0.25733
H          H       0.51485   0.52865   0.24267
H          H       0.95220   0.99507   0.25697
H          H       0.04780   0.99507   0.24303
H          H       0.45220   0.49507   0.25697
H          H       0.54780   0.49507   0.24303
H          H       0.97006   0.99204   0.41237
H          H       0.02994   0.99204   0.08763
H          H       0.47006   0.49204   0.41237
H          H       0.52994   0.49204   0.08763
H          H       0.00349   0.02389   0.41270
H          H       0.99651   0.02389   0.08730
H          H       0.50349   0.52389   0.41270
H          H       0.49651   0.52389   0.08730
H          H       0.98109   0.20713   0.25860
H          H       0.01891   0.20713   0.24140
H          H       0.48109   0.70713   0.25860
H          H       0.51891   0.70713   0.24140
H          H       0.94721   0.23660   0.26179
H          H       0.05279   0.23660   0.23821
H          H       0.44721   0.73660   0.26179
H          H       0.55279   0.73660   0.23821
H          H       0.97200   0.25632   0.41382
H          H       0.02800   0.25632   0.08618
H          H       0.47200   0.75632   0.41382
H          H       0.52800   0.75632   0.08618
H          H       0.00541   0.22496   0.41136
H          H       0.99459   0.22496   0.08864
H          H       0.50541   0.72496   0.41136
H          H       0.49459   0.72496   0.08864
H          H       0.94730   0.28518   0.39687
H          H       0.05270   0.28518   0.10313
H          H       0.44730   0.78518   0.39687
H          H       0.55270   0.78518   0.10313
H          H       0.93259   0.95641   0.26813
H          H       0.06741   0.95641   0.23187
H          H       0.43259   0.45641   0.26813
H          H       0.56741   0.45641   0.23187
H          H       0.15447   0.93029   0.39095
H          H       0.84553   0.93029   0.10905
H          H       0.65447   0.43029   0.39095
H          H       0.34553   0.43029   0.10905
H          H       0.88699   0.35865   0.41455
H          H       0.11301   0.35865   0.08545
H          H       0.38699   0.85865   0.41455
H          H       0.61301   0.85865   0.08545
H          H       0.86001   0.26864   0.32328
H          H       0.13999   0.26864   0.17672
H          H       0.36001   0.76864   0.32328
H          H       0.63999   0.76864   0.17672
H          H       0.89631   0.24732   0.32377
H          H       0.10369   0.24732   0.17623
H          H       0.39631   0.74732   0.32377
H          H       0.60369   0.74732   0.17623
H          H       0.92325   0.33715   0.41457
H          H       0.07675   0.33715   0.08543
H          H       0.42325   0.83715   0.41457
H          H       0.57675   0.83715   0.08543
H          H       0.76648   0.78403   0.36618
H          H       0.23352   0.78403   0.13382
H          H       0.26648   0.28403   0.36618
H          H       0.73352   0.28403   0.13382
H          H       0.84803   0.85773   0.27010
H          H       0.15197   0.85773   0.22990
H          H       0.34803   0.35773   0.27010
H          H       0.65197   0.35773   0.22990
H          H       0.71683   0.87836   0.30826
H          H       0.28317   0.87836   0.19174
H          H       0.21683   0.37836   0.30826
H          H       0.78317   0.37836   0.19174
H          H       0.75411   0.96344   0.26848
H          H       0.24589   0.96344   0.23152
H          H       0.25411   0.46344   0.26848
H          H       0.74589   0.46344   0.23152
H          H       0.78619   0.92538   0.29093
H          H       0.21381   0.92538   0.20907
H          H       0.28619   0.42538   0.29093
H          H       0.71381   0.42538   0.20907
H          H       0.78938   0.91387   0.38039
H          H       0.21062   0.91387   0.11961
H          H       0.28938   0.41387   0.38039
H          H       0.71062   0.41387   0.11961
H          H       0.80321   0.97108   0.42145
H          H       0.19679   0.97108   0.07855
H          H       0.30321   0.47108   0.42145
H          H       0.69679   0.47108   0.07855
H          H       0.85898   0.96329   0.36761
H          H       0.14102   0.96329   0.13239
H          H       0.35898   0.46329   0.36761
H          H       0.64102   0.46329   0.13239
O          O       0.78802   0.41813   0.37468
O          O       0.21198   0.41813   0.12532
O          O       0.28802   0.91813   0.37468
O          O       0.71198   0.91813   0.12532
O          O       0.78899   0.40980   0.31071
O          O       0.21101   0.40980   0.18929
O          O       0.28899   0.90980   0.31071
O          O       0.71101   0.90980   0.18929
O          O       0.82633   0.42365   0.33143
O          O       0.17367   0.42365   0.16857
O          O       0.32633   0.92365   0.33143
O          O       0.67367   0.92365   0.16857
O          O       0.82534   0.40585   0.40555
O          O       0.17466   0.40585   0.09445
O          O       0.32534   0.90585   0.40555
O          O       0.67466   0.90585   0.09445
P          P       0.80951   0.41793   0.35474
P          P       0.19049   0.41793   0.14526
P          P       0.30951   0.91793   0.35474
P          P       0.69049   0.91793   0.14526
C          C       0.74707   0.38874   0.36800
C          C       0.25293   0.38874   0.13200
C          C       0.24707   0.88874   0.36800
C          C       0.75293   0.88874   0.13200
C          C       0.75595   0.35969   0.39713
C          C       0.24405   0.35969   0.10287
C          C       0.25595   0.85969   0.39713
C          C       0.74405   0.85969   0.10287
C          C       0.77674   0.34858   0.39902
C          C       0.22326   0.34858   0.10098
C          C       0.27674   0.84858   0.39902
C          C       0.72326   0.84858   0.10098
C          C       0.78853   0.36670   0.37203
C          C       0.21147   0.36670   0.12797
C          C       0.28853   0.86670   0.37203
C          C       0.71147   0.86670   0.12797
C          C       0.77906   0.39450   0.34198
C          C       0.22094   0.39450   0.15802
C          C       0.27906   0.89450   0.34198
C          C       0.72094   0.89450   0.15802
C          C       0.75896   0.40613   0.34152
C          C       0.24104   0.40613   0.15848
C          C       0.25896   0.90613   0.34152
C          C       0.74104   0.90613   0.15848
C          C       0.80908   0.35164   0.36894
C          C       0.19092   0.35164   0.13106
C          C       0.30908   0.85164   0.36894
C          C       0.69092   0.85164   0.13106
C          C       0.82679   0.37294   0.38621
C          C       0.17321   0.37294   0.11379
C          C       0.32679   0.87294   0.38621
C          C       0.67321   0.87294   0.11379
C          C       0.84665   0.36092   0.38550
C          C       0.15335   0.36092   0.11450
C          C       0.34665   0.86092   0.38550
C          C       0.65335   0.86092   0.11450
C          C       0.84971   0.32675   0.36974
C          C       0.15029   0.32675   0.13026
C          C       0.34971   0.82675   0.36974
C          C       0.65029   0.82675   0.13026
C          C       0.83228   0.30378   0.35517
C          C       0.16772   0.30378   0.14483
C          C       0.33228   0.80378   0.35517
C          C       0.66772   0.80378   0.14483
C          C       0.81190   0.31631   0.35503
C          C       0.18810   0.31631   0.14496
C          C       0.31190   0.81631   0.35503
C          C       0.68810   0.81631   0.14496
C          C       0.74461   0.34146   0.42472
C          C       0.25539   0.34146   0.07528
C          C       0.24461   0.84146   0.42472
C          C       0.75539   0.84146   0.07528
C          C       0.75315   0.31234   0.45227
C          C       0.24685   0.31234   0.04773
C          C       0.25315   0.81234   0.45227
C          C       0.74685   0.81234   0.04773
C          C       0.77319   0.30091   0.45288
C          C       0.22681   0.30091   0.04712
C          C       0.27319   0.80091   0.45288
C          C       0.72681   0.80091   0.04712
C          C       0.78493   0.31884   0.42678
C          C       0.21507   0.31884   0.07322
C          C       0.28493   0.81884   0.42678
C          C       0.71507   0.81884   0.07322
C          C       0.79490   0.29282   0.34206
C          C       0.20510   0.29282   0.15794
C          C       0.29490   0.79282   0.34206
C          C       0.70510   0.79282   0.15794
C          C       0.79781   0.25784   0.32934
C          C       0.20219   0.25784   0.17066
C          C       0.29781   0.75784   0.32934
C          C       0.70219   0.75784   0.17066
C          C       0.81763   0.24558   0.32921
C          C       0.18237   0.24558   0.17079
C          C       0.31763   0.74558   0.32921
C          C       0.68237   0.74558   0.17079
C          C       0.83473   0.26830   0.34209
C          C       0.16527   0.26830   0.15791
C          C       0.33473   0.76830   0.34209
C          C       0.66527   0.76830   0.15791
Cl         Cl      0.73861   0.29033   0.48648
Cl         Cl      0.26139   0.29033   0.01352
Cl         Cl      0.23861   0.79033   0.48648
Cl         Cl      0.76139   0.79033   0.01352
Cl         Cl      0.82115   0.20133   0.31348
Cl         Cl      0.17885   0.20133   0.18652
Cl         Cl      0.32115   0.70133   0.31348
Cl         Cl      0.67885   0.70133   0.18652
H          H       0.75232   0.43018   0.31907
H          H       0.24768   0.43018   0.18093
H          H       0.25232   0.93018   0.31907
H          H       0.74768   0.93018   0.18093
H          H       0.86069   0.37909   0.39789
H          H       0.13931   0.37909   0.10211
H          H       0.36069   0.87909   0.39789
H          H       0.63931   0.87909   0.10211
H          H       0.72821   0.35048   0.42468
H          H       0.27179   0.35048   0.07532
H          H       0.22821   0.85048   0.42468
H          H       0.77179   0.85048   0.07532
H          H       0.78006   0.27676   0.47481
H          H       0.21994   0.27676   0.02519
H          H       0.28006   0.77676   0.47481
H          H       0.71994   0.77676   0.02519
H          H       0.80134   0.30919   0.42807
H          H       0.19866   0.30919   0.07193
H          H       0.30134   0.80919   0.42807
H          H       0.69866   0.80919   0.07193
H          H       0.77858   0.30234   0.34190
H          H       0.22142   0.30234   0.15810
H          H       0.27858   0.80234   0.34190
H          H       0.72142   0.80234   0.15810
H          H       0.78394   0.23906   0.31896
H          H       0.21606   0.23906   0.18104
H          H       0.28394   0.73906   0.31896
H          H       0.71606   0.73906   0.18104
H          H       0.85083   0.25785   0.34193
H          H       0.14917   0.25785   0.15807
H          H       0.35083   0.75785   0.34193
H          H       0.64917   0.75785   0.15807
H          H       0.78049   0.82915   0.32987
H          H       0.21951   0.82915   0.17013
H          H       0.28049   0.32915   0.32987
H          H       0.71951   0.32915   0.17013
H          H       0.79037   0.43587   0.40592
H          H       0.20963   0.43587   0.09408
H          H       0.29037   0.93587   0.40592
H          H       0.70963   0.93587   0.09408
C          C       0.19002   0.28916   0.84962
C          C       0.80998   0.28916   0.65038
C          C       0.69002   0.78916   0.84962
C          C       0.30998   0.78916   0.65038
C          C       0.20893   0.27591   0.87779
C          C       0.79107   0.27591   0.62221
C          C       0.70893   0.77591   0.87779
C          C       0.29107   0.77591   0.62221
C          C       0.22797   0.28979   0.87380
C          C       0.77203   0.28979   0.62620
C          C       0.72797   0.78979   0.87380
C          C       0.27203   0.78979   0.62620
C          C       0.22863   0.31756   0.84204
C          C       0.77137   0.31756   0.65796
C          C       0.72863   0.81756   0.84204
C          C       0.27137   0.81756   0.65796
C          C       0.20983   0.33080   0.81375
C          C       0.79017   0.33080   0.68626
C          C       0.70983   0.83080   0.81375
C          C       0.29017   0.83080   0.68626
C          C       0.19068   0.31674   0.81735
C          C       0.80932   0.31674   0.68265
C          C       0.69068   0.81674   0.81735
C          C       0.30932   0.81674   0.68265
C          C       0.87564   0.90910   0.77508
C          C       0.12436   0.90910   0.72491
C          C       0.37564   0.40910   0.77508
C          C       0.62436   0.40910   0.72491
C          C       0.86784   0.91774   0.81413
C          C       0.13216   0.91774   0.68587
C          C       0.36784   0.41774   0.81413
C          C       0.63216   0.41774   0.68587
C          C       0.87975   0.93948   0.84981
C          C       0.12025   0.93948   0.65019
C          C       0.37975   0.43948   0.84981
C          C       0.62025   0.43948   0.65019
C          C       0.89893   0.95311   0.84605
C          C       0.10107   0.95311   0.65395
C          C       0.39893   0.45311   0.84605
C          C       0.60107   0.45311   0.65395
C          C       0.90655   0.94514   0.80638
C          C       0.09345   0.94514   0.69362
C          C       0.40655   0.44514   0.80638
C          C       0.59345   0.44514   0.69362
C          C       0.89473   0.92282   0.77115
C          C       0.10527   0.92282   0.72885
C          C       0.39473   0.42282   0.77115
C          C       0.60527   0.42282   0.72885
C          C       0.18523   0.92791   0.86668
C          C       0.81477   0.92791   0.63332
C          C       0.68523   0.42791   0.86668
C          C       0.31477   0.42791   0.63332
C          C       0.19553   0.94051   0.83331
C          C       0.80447   0.94051   0.66669
C          C       0.69553   0.44051   0.83331
C          C       0.30447   0.44051   0.66669
C          C       0.21562   0.92821   0.83377
C          C       0.78438   0.92821   0.66622
C          C       0.71562   0.42821   0.83377
C          C       0.28438   0.42821   0.66622
C          C       0.22580   0.90297   0.86731
C          C       0.77420   0.90297   0.63270
C          C       0.72580   0.40297   0.86731
C          C       0.27420   0.40297   0.63270
C          C       0.21524   0.88994   0.89979
C          C       0.78476   0.88994   0.60022
C          C       0.71524   0.38994   0.89979
C          C       0.28476   0.38994   0.60022
C          C       0.19526   0.90226   0.89964
C          C       0.80474   0.90226   0.60036
C          C       0.69526   0.40226   0.89964
C          C       0.30474   0.40226   0.60036
C          C       0.05830   0.23249   0.83720
C          C       0.94170   0.23249   0.66280
C          C       0.55830   0.73249   0.83720
C          C       0.44170   0.73249   0.66280
C          C       0.03783   0.23209   0.83827
C          C       0.96217   0.23209   0.66173
C          C       0.53783   0.73209   0.83827
C          C       0.46217   0.73209   0.66173
C          C       0.03199   0.19672   0.83734
C          C       0.96801   0.19672   0.66266
C          C       0.53199   0.69672   0.83734
C          C       0.46801   0.69672   0.66266
N          N       0.04828   0.17506   0.83598
N          N       0.95172   0.17506   0.66402
N          N       0.54828   0.67506   0.83598
N          N       0.45172   0.67506   0.66402
C          C       0.06437   0.19736   0.83569
C          C       0.93563   0.19736   0.66431
C          C       0.56437   0.69736   0.83569
C          C       0.43563   0.69736   0.66431
C          C       0.08433   0.18704   0.83287
C          C       0.91567   0.18704   0.66713
C          C       0.58433   0.68704   0.83287
C          C       0.41567   0.68704   0.66713
C          C       0.01159   0.18573   0.83593
C          C       0.98841   0.18573   0.66407
C          C       0.51159   0.68573   0.83593
C          C       0.48841   0.68573   0.66407
C          C       0.03900   0.01155   0.83767
C          C       0.96100   0.01155   0.66233
C          C       0.53900   0.51155   0.83767
C          C       0.46100   0.51155   0.66233
C          C       0.05951   0.01183   0.83720
C          C       0.94049   0.01183   0.66280
C          C       0.55951   0.51183   0.83720
C          C       0.44049   0.51183   0.66280
C          C       0.06523   0.04707   0.83567
C          C       0.93477   0.04707   0.66433
C          C       0.56523   0.54707   0.83567
C          C       0.43477   0.54707   0.66433
N          N       0.04887   0.06883   0.83560
N          N       0.95113   0.06883   0.66440
N          N       0.54887   0.56883   0.83560
N          N       0.45113   0.56883   0.66440
C          C       0.03278   0.04667   0.83652
C          C       0.96722   0.04667   0.66348
C          C       0.53278   0.54667   0.83652
C          C       0.46722   0.54667   0.66348
C          C       0.08517   0.05800   0.83339
C          C       0.91483   0.05800   0.66661
C          C       0.58517   0.55800   0.83339
C          C       0.41483   0.55800   0.66661
C          C       0.01229   0.05701   0.83529
C          C       0.98771   0.05701   0.66471
C          C       0.51229   0.55701   0.83529
C          C       0.48771   0.55701   0.66471
C          C       0.98467   0.13814   0.83453
C          C       0.01533   0.13814   0.66546
C          C       0.48467   0.63814   0.83453
C          C       0.51533   0.63814   0.66546
C          C       0.98484   0.10341   0.83400
C          C       0.01516   0.10341   0.66600
C          C       0.48484   0.60341   0.83400
C          C       0.51516   0.60341   0.66600
C          C       0.00602   0.09255   0.83427
C          C       0.99398   0.09255   0.66574
C          C       0.50602   0.59255   0.83427
C          C       0.49398   0.59255   0.66574
N          N       0.01828   0.12148   0.83463
N          N       0.98172   0.12148   0.66537
N          N       0.51828   0.62148   0.83463
N          N       0.48172   0.62148   0.66537
C          C       0.00578   0.14990   0.83488
C          C       0.99422   0.14990   0.66512
C          C       0.50578   0.64990   0.83488
C          C       0.49422   0.64990   0.66512
C          C       0.11157   0.10560   0.83222
C          C       0.88843   0.10560   0.66779
C          C       0.61157   0.60560   0.83222
C          C       0.38843   0.60560   0.66779
C          C       0.11139   0.14033   0.83235
C          C       0.88861   0.14033   0.66765
C          C       0.61139   0.64033   0.83235
C          C       0.38861   0.64033   0.66765
C          C       0.09022   0.15126   0.83255
C          C       0.90978   0.15126   0.66745
C          C       0.59022   0.65126   0.83255
C          C       0.40978   0.65126   0.66745
N          N       0.07794   0.12240   0.83278
N          N       0.92206   0.12240   0.66722
N          N       0.57794   0.62240   0.83278
N          N       0.42206   0.62240   0.66722
C          C       0.09059   0.09390   0.83240
C          C       0.90941   0.09390   0.66760
C          C       0.59059   0.59390   0.83240
C          C       0.40941   0.59390   0.66760
Cu         Cu      0.04794   0.12192   0.83375
Cu         Cu      0.95206   0.12192   0.66625
Cu         Cu      0.54794   0.62192   0.83375
Cu         Cu      0.45206   0.62192   0.66625
C          C       0.16987   0.27306   0.85444
C          C       0.83013   0.27306   0.64556
C          C       0.66987   0.77306   0.85444
C          C       0.33013   0.77306   0.64556
N          N       0.15256   0.27976   0.82049
N          N       0.84744   0.27976   0.67951
N          N       0.65256   0.77976   0.82049
N          N       0.34744   0.77976   0.67951
C          C       0.13466   0.25786   0.82416
C          C       0.86534   0.25786   0.67584
C          C       0.63466   0.75786   0.82416
C          C       0.36534   0.75786   0.67584
C          C       0.12274   0.24087   0.78372
C          C       0.87726   0.24087   0.71629
C          C       0.62274   0.74087   0.78372
C          C       0.37726   0.74087   0.71629
C          C       0.10626   0.21845   0.78658
C          C       0.89374   0.21845   0.71341
C          C       0.60626   0.71845   0.78658
C          C       0.39374   0.71845   0.71341
C          C       0.10127   0.21281   0.82999
C          C       0.89873   0.21281   0.67001
C          C       0.60127   0.71281   0.82999
C          C       0.39873   0.71281   0.67001
C          C       0.11236   0.23168   0.87001
C          C       0.88764   0.23168   0.62999
C          C       0.61236   0.73168   0.87001
C          C       0.38764   0.73168   0.62999
C          C       0.12871   0.25463   0.86682
C          C       0.87129   0.25463   0.63318
C          C       0.62871   0.75463   0.86682
C          C       0.37129   0.75463   0.63318
C          C       0.10159   0.03063   0.83274
C          C       0.89841   0.03063   0.66726
C          C       0.60159   0.53063   0.83274
C          C       0.39841   0.53063   0.66726
C          C       0.99611   0.02911   0.83508
C          C       0.00389   0.02911   0.66492
C          C       0.49611   0.52911   0.83508
C          C       0.50389   0.52911   0.66492
C          C       0.99483   0.21238   0.83530
C          C       0.00517   0.21238   0.66470
C          C       0.49483   0.71238   0.83530
C          C       0.50517   0.71238   0.66470
C          C       0.11179   0.01279   0.87433
C          C       0.88821   0.01279   0.62567
C          C       0.61179   0.51279   0.87433
C          C       0.38821   0.51279   0.62567
C          C       0.12874   0.99020   0.87511
C          C       0.87126   0.99020   0.62489
C          C       0.62874   0.49020   0.87511
C          C       0.37126   0.49020   0.62489
C          C       0.13597   0.98512   0.83410
C          C       0.86403   0.98512   0.66590
C          C       0.63597   0.48512   0.83410
C          C       0.36403   0.48512   0.66590
C          C       0.12556   0.00264   0.79247
C          C       0.87444   0.00264   0.70754
C          C       0.62556   0.50264   0.79247
C          C       0.37444   0.50264   0.70754
C          C       0.10844   0.02476   0.79160
C          C       0.89156   0.02476   0.70840
C          C       0.60844   0.52476   0.79160
C          C       0.39156   0.52476   0.70840
C          C       0.98186   0.02057   0.79234
C          C       0.01814   0.02057   0.70765
C          C       0.48186   0.52057   0.79234
C          C       0.51814   0.52057   0.70765
C          C       0.96352   0.00217   0.79200
C          C       0.03648   0.00217   0.70800
C          C       0.46352   0.50217   0.79200
C          C       0.53648   0.50217   0.70800
C          C       0.95888   0.99227   0.83469
C          C       0.04112   0.99227   0.66531
C          C       0.45888   0.49227   0.83469
C          C       0.54112   0.49227   0.66531
C          C       0.97332   0.00021   0.87735
C          C       0.02668   0.00021   0.62265
C          C       0.47332   0.50021   0.87735
C          C       0.52668   0.50021   0.62265
C          C       0.99185   0.01817   0.87761
C          C       0.00815   0.01817   0.62239
C          C       0.49185   0.51817   0.87761
C          C       0.50815   0.51817   0.62239
C          C       0.97889   0.21700   0.79391
C          C       0.02111   0.21700   0.70609
C          C       0.47889   0.71700   0.79391
C          C       0.52111   0.71700   0.70609
C          C       0.96020   0.23369   0.79546
C          C       0.03980   0.23369   0.70454
C          C       0.46020   0.73369   0.79546
C          C       0.53980   0.73369   0.70454
C          C       0.95721   0.24696   0.83811
C          C       0.04279   0.24696   0.66189
C          C       0.45721   0.74696   0.83811
C          C       0.54279   0.74696   0.66189
C          C       0.97370   0.24435   0.87916
C          C       0.02630   0.24435   0.62084
C          C       0.47370   0.74435   0.87916
C          C       0.52630   0.74435   0.62084
C          C       0.99231   0.22705   0.87776
C          C       0.00769   0.22705   0.62224
C          C       0.49231   0.72705   0.87776
C          C       0.50769   0.72705   0.62224
C          C       0.93305   0.27727   0.86793
C          C       0.06695   0.27727   0.63207
C          C       0.43305   0.77727   0.86793
C          C       0.56695   0.77727   0.63207
N          N       0.93511   0.25550   0.83311
N          N       0.06489   0.25550   0.66689
N          N       0.43511   0.75550   0.83311
N          N       0.56489   0.75550   0.66689
C          C       0.92716   0.95947   0.80197
C          C       0.07284   0.95947   0.69803
C          C       0.42716   0.45947   0.80197
C          C       0.57284   0.45947   0.69803
N          N       0.93927   0.97623   0.83937
N          N       0.06073   0.97623   0.66063
N          N       0.43927   0.47623   0.83937
N          N       0.56073   0.47623   0.66063
C          C       0.16348   0.94053   0.86518
C          C       0.83652   0.94053   0.63482
C          C       0.66348   0.44053   0.86518
C          C       0.33652   0.44053   0.63482
N          N       0.15471   0.96475   0.83189
N          N       0.84529   0.96475   0.66811
N          N       0.65471   0.46475   0.83189
N          N       0.34529   0.46475   0.66811
C          C       0.88897   0.33369   0.89403
C          C       0.11103   0.33369   0.60597
C          C       0.38897   0.83369   0.89403
C          C       0.61103   0.83369   0.60597
C          C       0.87133   0.31486   0.86889
C          C       0.12867   0.31486   0.63111
C          C       0.37133   0.81486   0.86889
C          C       0.62867   0.81486   0.63111
C          C       0.87412   0.28419   0.84387
C          C       0.12588   0.28419   0.65612
C          C       0.37412   0.78419   0.84387
C          C       0.62588   0.78419   0.65612
C          C       0.89420   0.27239   0.84395
C          C       0.10580   0.27239   0.65605
C          C       0.39420   0.77239   0.84395
C          C       0.60580   0.77239   0.65605
C          C       0.91188   0.29126   0.86878
C          C       0.08812   0.29126   0.63122
C          C       0.41188   0.79126   0.86878
C          C       0.58812   0.79126   0.63122
C          C       0.90904   0.32187   0.89400
C          C       0.09096   0.32187   0.60601
C          C       0.40904   0.82187   0.89400
C          C       0.59096   0.82187   0.60601
O          O       0.78479   0.80922   0.80598
O          O       0.21521   0.80922   0.69401
O          O       0.28479   0.30922   0.80598
O          O       0.71521   0.30922   0.69401
O          O       0.80410   0.80541   0.86650
O          O       0.19590   0.80541   0.63350
O          O       0.30410   0.30541   0.86650
O          O       0.69590   0.30541   0.63350
O          O       0.83288   0.79929   0.82810
O          O       0.16712   0.79929   0.67190
O          O       0.33288   0.29929   0.82810
O          O       0.66712   0.29929   0.67190
O          O       0.81163   0.83018   0.76764
O          O       0.18837   0.83018   0.73235
O          O       0.31163   0.33018   0.76764
O          O       0.68837   0.33018   0.73235
P          P       0.81067   0.80763   0.81564
P          P       0.18933   0.80763   0.68435
P          P       0.31067   0.30763   0.81564
P          P       0.68933   0.30763   0.68435
C          C       0.74921   0.83262   0.83860
C          C       0.25079   0.83262   0.66139
C          C       0.24921   0.33262   0.83860
C          C       0.75079   0.33262   0.66139
C          C       0.75039   0.86684   0.81900
C          C       0.24961   0.86684   0.68100
C          C       0.25039   0.36684   0.81900
C          C       0.74961   0.36684   0.68100
C          C       0.76982   0.87978   0.81301
C          C       0.23018   0.87978   0.68699
C          C       0.26982   0.37978   0.81301
C          C       0.73018   0.37978   0.68699
C          C       0.78789   0.85835   0.82639
C          C       0.21211   0.85835   0.67361
C          C       0.28789   0.35835   0.82639
C          C       0.71211   0.35835   0.67361
C          C       0.78646   0.82510   0.84750
C          C       0.21354   0.82510   0.65249
C          C       0.28646   0.32510   0.84750
C          C       0.71354   0.32510   0.65249
C          C       0.76726   0.81199   0.85175
C          C       0.23274   0.81199   0.64825
C          C       0.26726   0.31199   0.85175
C          C       0.73274   0.31199   0.64825
C          C       0.80865   0.87415   0.82642
C          C       0.19135   0.87415   0.67359
C          C       0.30865   0.37415   0.82642
C          C       0.69135   0.37415   0.67359
C          C       0.81966   0.85843   0.79624
C          C       0.18034   0.85843   0.70376
C          C       0.31966   0.35843   0.79624
C          C       0.68034   0.35843   0.70376
C          C       0.83898   0.87167   0.79331
C          C       0.16102   0.87167   0.70669
C          C       0.33898   0.37167   0.79331
C          C       0.66102   0.37167   0.70669
C          C       0.84756   0.90195   0.81846
C          C       0.15244   0.90195   0.68154
C          C       0.34756   0.40195   0.81846
C          C       0.65244   0.40195   0.68154
C          C       0.83611   0.91980   0.84667
C          C       0.16389   0.91980   0.65333
C          C       0.33611   0.41980   0.84667
C          C       0.66389   0.41980   0.65333
C          C       0.81651   0.90586   0.85040
C          C       0.18349   0.90586   0.64960
C          C       0.31651   0.40586   0.85040
C          C       0.68349   0.40586   0.64960
C          C       0.73257   0.88854   0.80494
C          C       0.26743   0.88854   0.69506
C          C       0.23257   0.38854   0.80494
C          C       0.76743   0.38854   0.69506
C          C       0.73387   0.92251   0.78691
C          C       0.26613   0.92251   0.71309
C          C       0.23387   0.42251   0.78691
C          C       0.76613   0.42251   0.71309
C          C       0.75297   0.93545   0.78251
C          C       0.24703   0.93545   0.71749
C          C       0.25297   0.43545   0.78251
C          C       0.74703   0.43545   0.71749
C          C       0.77076   0.91436   0.79516
C          C       0.22924   0.91436   0.70484
C          C       0.27076   0.41436   0.79516
C          C       0.72924   0.41436   0.70484
C          C       0.80504   0.92455   0.87717
C          C       0.19496   0.92455   0.62282
C          C       0.30504   0.42455   0.87717
C          C       0.69496   0.42455   0.62282
C          C       0.81265   0.95617   0.89994
C          C       0.18735   0.95617   0.60006
C          C       0.31265   0.45617   0.89994
C          C       0.68735   0.45617   0.60006
C          C       0.83178   0.96974   0.89656
C          C       0.16822   0.96974   0.60343
C          C       0.33178   0.46974   0.89656
C          C       0.66822   0.46974   0.60343
C          C       0.84341   0.95178   0.87012
C          C       0.15659   0.95178   0.62989
C          C       0.34341   0.45178   0.87012
C          C       0.65659   0.45178   0.62989
Cl         Cl      0.71132   0.94879   0.76946
Cl         Cl      0.28868   0.94879   0.73053
Cl         Cl      0.21132   0.44879   0.76946
Cl         Cl      0.78868   0.44879   0.73053
Cl         Cl      0.84115   0.00978   0.92509
Cl         Cl      0.15885   0.00978   0.57491
Cl         Cl      0.34115   0.50978   0.92509
Cl         Cl      0.65885   0.50978   0.57491
H          H       0.20881   0.25365   0.90416
H          H       0.79119   0.25365   0.59584
H          H       0.70881   0.75365   0.90416
H          H       0.29119   0.75365   0.59584
H          H       0.24316   0.27859   0.89644
H          H       0.75684   0.27859   0.60356
H          H       0.74316   0.77859   0.89644
H          H       0.25684   0.77859   0.60356
H          H       0.21002   0.35315   0.78754
H          H       0.78998   0.35315   0.71245
H          H       0.71002   0.85315   0.78754
H          H       0.28998   0.85315   0.71245
H          H       0.17560   0.32778   0.79397
H          H       0.82440   0.32778   0.70603
H          H       0.67560   0.82778   0.79397
H          H       0.32440   0.82778   0.70603
H          H       0.86640   0.89081   0.74632
H          H       0.13360   0.89081   0.75368
H          H       0.36640   0.39081   0.74632
H          H       0.63360   0.39081   0.75368
H          H       0.87385   0.94621   0.88221
H          H       0.12615   0.94621   0.61779
H          H       0.37385   0.44621   0.88221
H          H       0.62615   0.44621   0.61779
H          H       0.90846   0.97075   0.87523
H          H       0.09154   0.97075   0.62478
H          H       0.40846   0.47075   0.87523
H          H       0.59154   0.47075   0.62478
H          H       0.90087   0.91592   0.73913
H          H       0.09913   0.91592   0.76087
H          H       0.40087   0.41592   0.73913
H          H       0.59913   0.41592   0.76087
H          H       0.18762   0.96079   0.80567
H          H       0.81238   0.96079   0.69433
H          H       0.68762   0.46079   0.80567
H          H       0.31238   0.46079   0.69433
H          H       0.22391   0.93866   0.80675
H          H       0.77609   0.93866   0.69325
H          H       0.72391   0.43866   0.80675
H          H       0.27609   0.43866   0.69325
H          H       0.22288   0.86904   0.92682
H          H       0.77712   0.86904   0.57319
H          H       0.72288   0.36904   0.92682
H          H       0.27712   0.36904   0.57319
H          H       0.18715   0.89121   0.92667
H          H       0.81285   0.89121   0.57333
H          H       0.68715   0.39121   0.92667
H          H       0.31285   0.39121   0.57333
H          H       0.06677   0.25887   0.83762
H          H       0.93323   0.25887   0.66237
H          H       0.56677   0.75887   0.83762
H          H       0.43323   0.75887   0.66237
H          H       0.02924   0.25814   0.83966
H          H       0.97076   0.25814   0.66035
H          H       0.52924   0.75814   0.83966
H          H       0.47076   0.75814   0.66035
H          H       0.03066   0.98522   0.83882
H          H       0.96934   0.98522   0.66117
H          H       0.53066   0.48522   0.83882
H          H       0.46934   0.48522   0.66117
H          H       0.06831   0.98574   0.83803
H          H       0.93169   0.98574   0.66197
H          H       0.56831   0.48574   0.83803
H          H       0.43169   0.48574   0.66197
H          H       0.96970   0.15297   0.83464
H          H       0.03030   0.15297   0.66536
H          H       0.46970   0.65297   0.83464
H          H       0.53030   0.65297   0.66536
H          H       0.97001   0.08797   0.83346
H          H       0.02999   0.08797   0.66654
H          H       0.47001   0.58797   0.83346
H          H       0.52999   0.58797   0.66654
H          H       0.12650   0.09072   0.83200
H          H       0.87350   0.09072   0.66800
H          H       0.62650   0.59072   0.83200
H          H       0.37350   0.59072   0.66800
H          H       0.12617   0.15572   0.83229
H          H       0.87383   0.15572   0.66771
H          H       0.62617   0.65572   0.83229
H          H       0.37383   0.65572   0.66771
H          H       0.16907   0.25561   0.88582
H          H       0.83093   0.25561   0.61418
H          H       0.66907   0.75561   0.88582
H          H       0.33093   0.75561   0.61418
H          H       0.12643   0.24524   0.74807
H          H       0.87357   0.24524   0.75193
H          H       0.62643   0.74524   0.74807
H          H       0.37357   0.74524   0.75193
H          H       0.09675   0.20460   0.75352
H          H       0.90325   0.20460   0.74649
H          H       0.59675   0.70460   0.75352
H          H       0.40325   0.70460   0.74649
H          H       0.10812   0.22843   0.90524
H          H       0.89188   0.22843   0.59475
H          H       0.60812   0.72843   0.90524
H          H       0.39188   0.72843   0.59475
H          H       0.13711   0.27062   0.89906
H          H       0.86289   0.27062   0.60094
H          H       0.63711   0.77062   0.89906
H          H       0.36289   0.77062   0.60094
H          H       0.10635   0.01654   0.90804
H          H       0.89365   0.01654   0.59196
H          H       0.60635   0.51654   0.90804
H          H       0.39365   0.51654   0.59196
H          H       0.13676   0.97579   0.90907
H          H       0.86324   0.97579   0.59093
H          H       0.63676   0.47579   0.90907
H          H       0.36324   0.47579   0.59093
H          H       0.13098   0.99899   0.75870
H          H       0.86902   0.99899   0.74130
H          H       0.63098   0.49899   0.75870
H          H       0.36902   0.49899   0.74130
H          H       0.10007   0.03804   0.75701
H          H       0.89993   0.03804   0.74299
H          H       0.60007   0.53804   0.75701
H          H       0.39993   0.53804   0.74299
H          H       0.98515   0.02865   0.75733
H          H       0.01485   0.02865   0.74267
H          H       0.48515   0.52865   0.75733
H          H       0.51485   0.52865   0.74267
H          H       0.95220   0.99507   0.75697
H          H       0.04780   0.99507   0.74303
H          H       0.45220   0.49507   0.75697
H          H       0.54780   0.49507   0.74303
H          H       0.97006   0.99204   0.91237
H          H       0.02994   0.99204   0.58762
H          H       0.47006   0.49204   0.91237
H          H       0.52994   0.49204   0.58762
H          H       0.00349   0.02389   0.91270
H          H       0.99651   0.02389   0.58730
H          H       0.50349   0.52389   0.91270
H          H       0.49651   0.52389   0.58730
H          H       0.98109   0.20713   0.75860
H          H       0.01891   0.20713   0.74140
H          H       0.48109   0.70713   0.75860
H          H       0.51891   0.70713   0.74140
H          H       0.94721   0.23660   0.76179
H          H       0.05279   0.23660   0.73820
H          H       0.44721   0.73660   0.76179
H          H       0.55279   0.73660   0.73820
H          H       0.97200   0.25632   0.91382
H          H       0.02800   0.25632   0.58618
H          H       0.47200   0.75632   0.91382
H          H       0.52800   0.75632   0.58618
H          H       0.00541   0.22496   0.91136
H          H       0.99459   0.22496   0.58865
H          H       0.50541   0.72496   0.91136
H          H       0.49459   0.72496   0.58865
H          H       0.94730   0.28518   0.89687
H          H       0.05270   0.28518   0.60313
H          H       0.44730   0.78518   0.89687
H          H       0.55270   0.78518   0.60313
H          H       0.93259   0.95641   0.76812
H          H       0.06741   0.95641   0.73188
H          H       0.43259   0.45641   0.76812
H          H       0.56741   0.45641   0.73188
H          H       0.15447   0.93029   0.89095
H          H       0.84553   0.93029   0.60905
H          H       0.65447   0.43029   0.89095
H          H       0.34553   0.43029   0.60905
H          H       0.88699   0.35865   0.91455
H          H       0.11301   0.35865   0.58545
H          H       0.38699   0.85865   0.91455
H          H       0.61301   0.85865   0.58545
H          H       0.86001   0.26864   0.82329
H          H       0.13999   0.26864   0.67672
H          H       0.36001   0.76864   0.82329
H          H       0.63999   0.76864   0.67672
H          H       0.89631   0.24732   0.82377
H          H       0.10369   0.24732   0.67623
H          H       0.39631   0.74732   0.82377
H          H       0.60369   0.74732   0.67623
H          H       0.92325   0.33715   0.91457
H          H       0.07675   0.33715   0.58543
H          H       0.42325   0.83715   0.91457
H          H       0.57675   0.83715   0.58543
H          H       0.76648   0.78403   0.86618
H          H       0.23352   0.78403   0.63382
H          H       0.26648   0.28403   0.86618
H          H       0.73352   0.28403   0.63382
H          H       0.84803   0.85773   0.77011
H          H       0.15197   0.85773   0.72990
H          H       0.34803   0.35773   0.77011
H          H       0.65197   0.35773   0.72990
H          H       0.71683   0.87836   0.80826
H          H       0.28317   0.87836   0.69174
H          H       0.21683   0.37836   0.80826
H          H       0.78317   0.37836   0.69174
H          H       0.75411   0.96344   0.76848
H          H       0.24589   0.96344   0.73152
H          H       0.25411   0.46344   0.76848
H          H       0.74589   0.46344   0.73152
H          H       0.78619   0.92538   0.79093
H          H       0.21381   0.92538   0.70906
H          H       0.28619   0.42538   0.79093
H          H       0.71381   0.42538   0.70906
H          H       0.78938   0.91387   0.88039
H          H       0.21062   0.91387   0.61960
H          H       0.28938   0.41387   0.88039
H          H       0.71062   0.41387   0.61960
H          H       0.80321   0.97108   0.92145
H          H       0.19679   0.97108   0.57855
H          H       0.30321   0.47108   0.92145
H          H       0.69679   0.47108   0.57855
H          H       0.85898   0.96329   0.86760
H          H       0.14102   0.96329   0.63240
H          H       0.35898   0.46329   0.86760
H          H       0.64102   0.46329   0.63240
O          O       0.78802   0.41813   0.87469
O          O       0.21198   0.41813   0.62532
O          O       0.28802   0.91813   0.87469
O          O       0.71198   0.91813   0.62532
O          O       0.78899   0.40980   0.81071
O          O       0.21101   0.40980   0.68929
O          O       0.28899   0.90980   0.81071
O          O       0.71101   0.90980   0.68929
O          O       0.82633   0.42365   0.83143
O          O       0.17367   0.42365   0.66858
O          O       0.32633   0.92365   0.83143
O          O       0.67367   0.92365   0.66858
O          O       0.82534   0.40585   0.90555
O          O       0.17466   0.40585   0.59445
O          O       0.32534   0.90585   0.90555
O          O       0.67466   0.90585   0.59445
P          P       0.80951   0.41793   0.85474
P          P       0.19049   0.41793   0.64527
P          P       0.30951   0.91793   0.85474
P          P       0.69049   0.91793   0.64527
C          C       0.74707   0.38874   0.86800
C          C       0.25293   0.38874   0.63200
C          C       0.24707   0.88874   0.86800
C          C       0.75293   0.88874   0.63200
C          C       0.75595   0.35969   0.89713
C          C       0.24405   0.35969   0.60287
C          C       0.25595   0.85969   0.89713
C          C       0.74405   0.85969   0.60287
C          C       0.77674   0.34858   0.89902
C          C       0.22326   0.34858   0.60098
C          C       0.27674   0.84858   0.89902
C          C       0.72326   0.84858   0.60098
C          C       0.78853   0.36670   0.87203
C          C       0.21147   0.36670   0.62797
C          C       0.28853   0.86670   0.87203
C          C       0.71147   0.86670   0.62797
C          C       0.77906   0.39450   0.84199
C          C       0.22094   0.39450   0.65802
C          C       0.27906   0.89450   0.84199
C          C       0.72094   0.89450   0.65802
C          C       0.75896   0.40613   0.84152
C          C       0.24104   0.40613   0.65848
C          C       0.25896   0.90613   0.84152
C          C       0.74104   0.90613   0.65848
C          C       0.80908   0.35164   0.86894
C          C       0.19092   0.35164   0.63106
C          C       0.30908   0.85164   0.86894
C          C       0.69092   0.85164   0.63106
C          C       0.82679   0.37294   0.88621
C          C       0.17321   0.37294   0.61379
C          C       0.32679   0.87294   0.88621
C          C       0.67321   0.87294   0.61379
C          C       0.84665   0.36092   0.88550
C          C       0.15335   0.36092   0.61450
C          C       0.34665   0.86092   0.88550
C          C       0.65335   0.86092   0.61450
C          C       0.84971   0.32675   0.86974
C          C       0.15029   0.32675   0.63026
C          C       0.34971   0.82675   0.86974
C          C       0.65029   0.82675   0.63026
C          C       0.83228   0.30378   0.85517
C          C       0.16772   0.30378   0.64483
C          C       0.33228   0.80378   0.85517
C          C       0.66772   0.80378   0.64483
C          C       0.81190   0.31631   0.85503
C          C       0.18810   0.31631   0.64497
C          C       0.31190   0.81631   0.85503
C          C       0.68810   0.81631   0.64497
C          C       0.74461   0.34146   0.92471
C          C       0.25539   0.34146   0.57529
C          C       0.24461   0.84146   0.92471
C          C       0.75539   0.84146   0.57529
C          C       0.75315   0.31234   0.95227
C          C       0.24685   0.31234   0.54773
C          C       0.25315   0.81234   0.95227
C          C       0.74685   0.81234   0.54773
C          C       0.77319   0.30091   0.95288
C          C       0.22681   0.30091   0.54712
C          C       0.27319   0.80091   0.95288
C          C       0.72681   0.80091   0.54712
C          C       0.78493   0.31884   0.92678
C          C       0.21507   0.31884   0.57322
C          C       0.28493   0.81884   0.92678
C          C       0.71507   0.81884   0.57322
C          C       0.79490   0.29282   0.84206
C          C       0.20510   0.29282   0.65794
C          C       0.29490   0.79282   0.84206
C          C       0.70510   0.79282   0.65794
C          C       0.79781   0.25784   0.82934
C          C       0.20219   0.25784   0.67066
C          C       0.29781   0.75784   0.82934
C          C       0.70219   0.75784   0.67066
C          C       0.81763   0.24558   0.82921
C          C       0.18237   0.24558   0.67079
C          C       0.31763   0.74558   0.82921
C          C       0.68237   0.74558   0.67079
C          C       0.83473   0.26830   0.84208
C          C       0.16527   0.26830   0.65791
C          C       0.33473   0.76830   0.84208
C          C       0.66527   0.76830   0.65791
Cl         Cl      0.73861   0.29033   0.98648
Cl         Cl      0.26139   0.29033   0.51352
Cl         Cl      0.23861   0.79033   0.98648
Cl         Cl      0.76139   0.79033   0.51352
Cl         Cl      0.82115   0.20133   0.81348
Cl         Cl      0.17885   0.20133   0.68652
Cl         Cl      0.32115   0.70133   0.81348
Cl         Cl      0.67885   0.70133   0.68652
H          H       0.75232   0.43018   0.81908
H          H       0.24768   0.43018   0.68093
H          H       0.25232   0.93018   0.81908
H          H       0.74768   0.93018   0.68093
H          H       0.86069   0.37909   0.89789
H          H       0.13931   0.37909   0.60211
H          H       0.36069   0.87909   0.89789
H          H       0.63931   0.87909   0.60211
H          H       0.72821   0.35048   0.92468
H          H       0.27179   0.35048   0.57532
H          H       0.22821   0.85048   0.92468
H          H       0.77179   0.85048   0.57532
H          H       0.78006   0.27676   0.97481
H          H       0.21994   0.27676   0.52519
H          H       0.28006   0.77676   0.97481
H          H       0.71994   0.77676   0.52519
H          H       0.80134   0.30919   0.92807
H          H       0.19866   0.30919   0.57193
H          H       0.30134   0.80919   0.92807
H          H       0.69866   0.80919   0.57193
H          H       0.77858   0.30234   0.84190
H          H       0.22142   0.30234   0.65810
H          H       0.27858   0.80234   0.84190
H          H       0.72142   0.80234   0.65810
H          H       0.78394   0.23906   0.81896
H          H       0.21606   0.23906   0.68104
H          H       0.28394   0.73906   0.81896
H          H       0.71606   0.73906   0.68104
H          H       0.85083   0.25785   0.84193
H          H       0.14917   0.25785   0.65807
H          H       0.35083   0.75785   0.84193
H          H       0.64917   0.75785   0.65807
H          H       0.78049   0.82915   0.82987
H          H       0.21951   0.82915   0.67013
H          H       0.28049   0.32915   0.82987
H          H       0.71951   0.32915   0.67013
H          H       0.79037   0.43587   0.90592
H          H       0.20963   0.43587   0.59408
H          H       0.29037   0.93587   0.90592
H          H       0.70963   0.93587   0.59408
