data_TAPB-TFPB
_audit_creation_date              0000-00-00
_audit_creation_method            'LanYouShi'
_symmetry_space_group_name_H-M    'P1'
_cell_length_a                    26.4636002
_cell_length_b                    26.4636002
_cell_length_c                    3.5000000
_cell_angle_alpha                 90.0000000
_cell_angle_beta                  90.0000000
_cell_angle_gamma                 120.0000000
loop_
_atom_site_label
_atom_site_type_symbol
_atom_site_fract_x
_atom_site_fract_y
_atom_site_fract_z
_atom_site_U_iso_or_equiv
_atom_site_adp_type
_atom_site_occupancy
        C1          C  0.7304489  0.3659439  0.5000046    0.00000       Uiso       1.00
        C2          C  0.6340578  0.3645058  0.5000046    0.00000       Uiso       1.00
        C3          C  0.6354959  0.2695528  0.5000046    0.00000       Uiso       1.00
        C4          C  0.6973752  0.3039809  0.5000046    0.00000       Uiso       1.00
        C5          C  0.6960208  0.3933951  0.5000046    0.00000       Uiso       1.00
        C6          C  0.6066067  0.3026266  0.5000046    0.00000       Uiso       1.00
        C1          C  0.2700506  0.6419981  0.5000046    0.00000       Uiso       1.00
        C2          C  0.3580036  0.6280534  0.5000046    0.00000       Uiso       1.00
        C3          C  0.3719484  0.7299511  0.5000046    0.00000       Uiso       1.00
        C4          C  0.3101080  0.7030217  0.5000046    0.00000       Uiso       1.00
        C5          C  0.2969800  0.6070871  0.5000046    0.00000       Uiso       1.00
        C6          C  0.3929146  0.6898938  0.5000046    0.00000       Uiso       1.00
        H1          H  0.7205490  0.2774504  0.5000046    0.00000       Uiso       1.00
        H2          H  0.7225513  0.4430995  0.5000046    0.00000       Uiso       1.00
        H3          H  0.5569022  0.2794526  0.5000046    0.00000       Uiso       1.00
        H1          H  0.2932898  0.7351537  0.5000046    0.00000       Uiso       1.00
        H2          H  0.2648479  0.5581369  0.5000046    0.00000       Uiso       1.00
        H3          H  0.4418648  0.7067119  0.5000046    0.00000       Uiso       1.00
        C1          C  0.2073967  0.6175745  0.5000046    0.00000       Uiso       1.00
        C2          C  0.3824272  0.5898231  0.5000046    0.00000       Uiso       1.00
        C3          C  0.4101786  0.7926050  0.5000046    0.00000       Uiso       1.00
        C4          C  0.7935950  0.3982278  0.5000046    0.00000       Uiso       1.00
        C5          C  0.6017739  0.3953680  0.5000046    0.00000       Uiso       1.00
        C6          C  0.6046337  0.2064068  0.5000046    0.00000       Uiso       1.00
        C7          C  0.1801852  0.6525515  0.5000046    0.00000       Uiso       1.00
        C8          C  0.3474502  0.5276345  0.5000046    0.00000       Uiso       1.00
        C9          C  0.4723672  0.8198166  0.5000046    0.00000       Uiso       1.00
       C10          C  0.8283326  0.3707398  0.5000046    0.00000       Uiso       1.00
       C11          C  0.6292619  0.4575936  0.5000046    0.00000       Uiso       1.00
       C12          C  0.5424080  0.1716691  0.5000046    0.00000       Uiso       1.00
       C13          C  0.6335663  0.1730263  0.5000046    0.00000       Uiso       1.00
       C14          C  0.8269754  0.4605408  0.5000046    0.00000       Uiso       1.00
       C15          C  0.5394608  0.3664354  0.5000046    0.00000       Uiso       1.00
       C16          C  0.3892248  0.8329790  0.5000046    0.00000       Uiso       1.00
       C17          C  0.1670227  0.5562466  0.5000046    0.00000       Uiso       1.00
       C18          C  0.4437551  0.6107770  0.5000046    0.00000       Uiso       1.00
       C19          C  0.1193240  0.6292207  0.5000046    0.00000       Uiso       1.00
       C20          C  0.3707810  0.4901042  0.5000046    0.00000       Uiso       1.00
       C21          C  0.5098975  0.8806777  0.5000046    0.00000       Uiso       1.00
       C22          C  0.8897125  0.4018913  0.5000046    0.00000       Uiso       1.00
       C23          C  0.5981104  0.4878220  0.5000046    0.00000       Uiso       1.00
       C24          C  0.5121797  0.1102892  0.5000046    0.00000       Uiso       1.00
       C25          C  0.6038079  0.1116532  0.5000046    0.00000       Uiso       1.00
       C26          C  0.8883485  0.4921556  0.5000046    0.00000       Uiso       1.00
       C27          C  0.5078461  0.3961937  0.5000046    0.00000       Uiso       1.00
       C28          C  0.4260527  0.8939317  0.5000046    0.00000       Uiso       1.00
       C29          C  0.1060700  0.5321219  0.5000046    0.00000       Uiso       1.00
       C30          C  0.4678798  0.5739490  0.5000046    0.00000       Uiso       1.00
       C31          C  0.0811688  0.5684105  0.5000046    0.00000       Uiso       1.00
       C32          C  0.4315913  0.5127593  0.5000046    0.00000       Uiso       1.00
       C33          C  0.4872424  0.9188328  0.5000046    0.00000       Uiso       1.00
       C34          C  0.9208472  0.4631428  0.5000046    0.00000       Uiso       1.00
       C35          C  0.5368589  0.4577053  0.5000046    0.00000       Uiso       1.00
       C36          C  0.5422965  0.0791545  0.5000046    0.00000       Uiso       1.00
       C37          C  0.0205830  0.5464647  0.5000046    0.00000       Uiso       1.00
       C38          C  0.4535370  0.4741192  0.5000046    0.00000       Uiso       1.00
       C39          C  0.5258825  0.9794187  0.5000046    0.00000       Uiso       1.00
        N1          N  0.9799122  0.4892035  0.5000046    0.00000       Uiso       1.00
        N2          N  0.5107983  0.4907096  0.5000046    0.00000       Uiso       1.00
        N3          N  0.5092921  0.0200895  0.5000046    0.00000       Uiso       1.00
        H1          H  0.2080895  0.7021649  0.5000046    0.00000       Uiso       1.00
        H2          H  0.2978368  0.5059255  0.5000046    0.00000       Uiso       1.00
        H3          H  0.4940763  0.7919122  0.5000046    0.00000       Uiso       1.00
        H4          H  0.8064087  0.3211097  0.5000046    0.00000       Uiso       1.00
        H5          H  0.6788920  0.4852998  0.5000046    0.00000       Uiso       1.00
        H6          H  0.5147019  0.1935930  0.5000046    0.00000       Uiso       1.00
        H7          H  0.6832663  0.1961025  0.5000046    0.00000       Uiso       1.00
        H8          H  0.8038992  0.4871647  0.5000046    0.00000       Uiso       1.00
        H9          H  0.5128371  0.3167354  0.5000046    0.00000       Uiso       1.00
       H10          H  0.3402935  0.8162606  0.5000046    0.00000       Uiso       1.00
       H11          H  0.1837410  0.5240337  0.5000046    0.00000       Uiso       1.00
       H12          H  0.4759680  0.6597081  0.5000046    0.00000       Uiso       1.00
       H13          H  0.1004262  0.6596199  0.5000046    0.00000       Uiso       1.00
       H14          H  0.3403818  0.4408072  0.5000046    0.00000       Uiso       1.00
       H15          H  0.5591945  0.8995755  0.5000046    0.00000       Uiso       1.00
       H16          H  0.9149567  0.3773952  0.5000046    0.00000       Uiso       1.00
       H17          H  0.6226065  0.5375624  0.5000046    0.00000       Uiso       1.00
       H18          H  0.4624393  0.0850450  0.5000046    0.00000       Uiso       1.00
       H19          H  0.6294275  0.0875380  0.5000046    0.00000       Uiso       1.00
       H20          H  0.9124636  0.5418903  0.5000046    0.00000       Uiso       1.00
       H21          H  0.4581114  0.3705742  0.5000046    0.00000       Uiso       1.00
       H22          H  0.4065060  0.9237710  0.5000046    0.00000       Uiso       1.00
       H23          H  0.0762307  0.4827359  0.5000046    0.00000       Uiso       1.00
       H24          H  0.5172658  0.5934957  0.5000046    0.00000       Uiso       1.00
       H25          H  0.0027889  0.5777950  0.5000046    0.00000       Uiso       1.00
       H26          H  0.4222067  0.4249947  0.5000046    0.00000       Uiso       1.00
       H27          H  0.5750070  0.9972128  0.5000046    0.00000       Uiso       1.00
