data_crystal

_cell_length_a    51.31000
_cell_length_b    51.43000
_cell_length_c    16.20000
_cell_angle_alpha 90.01000
_cell_angle_beta  90.42000
_cell_angle_gamma 119.85000

_space_group_name_Hall 'P 1'
_space_group_name_H-M_alt 'P 1'

loop_
_symmetry_equiv_pos_as_xyz
 'x,y,z'

loop_
_atom_site_label
_atom_site_type_symbol
_atom_site_fract_x
_atom_site_fract_y
_atom_site_fract_z
C          C       0.02927   0.99023   0.44028
C          C       0.04144   0.02178   0.43864
C          C       0.99057   0.01302   0.45962
C          C       0.25131   0.53894   0.44267
C          C       0.26705   0.54949   0.36860
C          C       0.28850   0.57976   0.35934
C          C       0.29460   0.59995   0.42453
C          C       0.27846   0.58972   0.49805
C          C       0.02138   0.03302   0.44949
C          C       0.31770   0.63186   0.41636
C          C       0.11024   0.34723   0.49946
C          C       0.09246   0.25275   0.46144
C          C       0.08139   0.22181   0.46242
C          C       0.17448   0.41204   0.44461
C          C       0.19221   0.44327   0.44238
N          N       0.09056   0.35574   0.47222
C          C       0.06391   0.32971   0.46660
N          N       0.06605   0.30547   0.48828
C          C       0.04010   0.27542   0.49875
C          C       0.09679   0.38633   0.45375
N          N       0.23045   0.50733   0.44960
N          N       0.05929   0.15824   0.47372
C          C       0.04884   0.12661   0.46887
C          C       0.03135   0.06539   0.45484
C          C       0.04111   0.08400   0.38533
C          C       0.05014   0.11445   0.39264
Au         Au      0.02474   0.32653   0.43615
C          C       0.06962   0.38765   0.42022
C          C       0.34894   0.64175   0.41928
C          C       0.46495   0.70815   0.43325
C          C       0.44925   0.69318   0.36150
C          C       0.41820   0.68159   0.35548
C          C       0.40251   0.68504   0.42113
C          C       0.41828   0.70084   0.49189
C          C       0.44926   0.71235   0.49802
C          C       0.97820   0.98182   0.45193
C          C       0.36970   0.67296   0.41573
C          C       0.65475   0.81967   0.49735
C          C       0.75531   0.84325   0.46638
C          C       0.78619   0.86330   0.46259
C          C       0.59305   0.76398   0.43036
C          C       0.56162   0.74872   0.42911
N          N       0.49690   0.72013   0.43687
N          N       0.85042   0.90260   0.48046
C          C       0.88209   0.92260   0.47322
C          C       0.90162   0.91121   0.48100
C          C       0.93260   0.93012   0.47400
C          C       0.94482   0.96090   0.45585
C          C       0.92451   0.97151   0.44283
C          C       0.89373   0.95290   0.45364
C          C       0.35928   0.69348   0.41303
C          C       0.29506   0.74522   0.43488
C          C       0.28243   0.72184   0.37701
C          C       0.29348   0.70203   0.36883
C          C       0.31779   0.70562   0.41766
C          C       0.33117   0.72973   0.47362
C          C       0.31999   0.74941   0.48217
C          C       0.32850   0.68370   0.41285
C          C       0.15799   0.89514   0.46035
C          C       0.13864   0.90694   0.45977
C          C       0.23861   0.81668   0.44629
C          C       0.25335   0.80007   0.44162
N          N       0.26358   0.89855   0.47136
C          C       0.26330   0.92467   0.46231
N          N       0.23685   0.92240   0.48376
C          C       0.23206   0.94812   0.49050
C          C       0.28845   0.89275   0.45560
N          N       0.28198   0.76412   0.44348
N          N       0.10101   0.93388   0.46774
C          C       0.08301   0.94809   0.46237
C          C       0.04852   0.97651   0.44545
C          C       0.04994   0.95933   0.38040
C          C       0.06743   0.94553   0.38858
Au         Au      0.29828   0.96349   0.42755
C          C       0.31671   0.91992   0.42311
C          C       0.30792   0.65290   0.41309
C          C       0.99820   0.97091   0.44265
C          C       0.36030   0.61985   0.43405
C          C       0.07278   0.04122   0.40351
N          N       0.09710   0.05858   0.46518
C          C       0.12116   0.05079   0.45527
N          N       0.16076   0.10171   0.48994
C          C       0.10992   0.09117   0.45001
C          C       0.25712   0.55947   0.50753
C          C       0.14120   0.31893   0.55551
C          C       0.15615   0.35027   0.54858
C          C       0.14099   0.36498   0.51985
C          C       0.09539   0.31645   0.50803
C          C       0.11058   0.30138   0.53465
C          C       0.09702   0.26856   0.53560
C          C       0.07515   0.20637   0.53780
C          C       0.08018   0.22241   0.61186
C          C       0.09128   0.25333   0.61081
C          C       0.15777   0.39788   0.51506
C          C       0.06391   0.17381   0.54094
C          C       0.19356   0.46069   0.51096
C          C       0.17664   0.44635   0.58121
C          C       0.15900   0.41513   0.58344
C          C       0.21289   0.49362   0.51132
C          C       0.03677   0.10734   0.53701
C          C       0.02784   0.07702   0.52933
C          C       0.03100   0.26972   0.58918
C          C       0.68587   0.83862   0.50581
C          C       0.64168   0.78855   0.50796
C          C       0.66087   0.77714   0.52793
C          C       0.69136   0.79590   0.54012
C          C       0.70489   0.82714   0.52654
C          C       0.73758   0.84779   0.52380
C          C       0.79954   0.88863   0.51445
C          C       0.78164   0.89357   0.57007
C          C       0.75089   0.87323   0.57497
C          C       0.60870   0.77022   0.50564
C          C       0.83188   0.91036   0.51035
C          C       0.54550   0.73979   0.50338
C          C       0.56132   0.74603   0.57847
C          C       0.59269   0.76136   0.57964
N          N       0.65415   0.74829   0.53836
C          C       0.68075   0.75039   0.55996
N          N       0.70368   0.77904   0.56395
C          C       0.51243   0.72520   0.50461
C          C       0.73366   0.78767   0.59701
C          C       0.62488   0.72101   0.52516
Au         Au      0.68651   0.71560   0.58460
Cl         Cl      0.69302   0.67613   0.61247
C          C       0.62637   0.69211   0.52809
C          C       0.73180   0.77769   0.68656
C          C       0.17753   0.84844   0.56122
C          C       0.19449   0.83393   0.55591
C          C       0.22384   0.84887   0.52452
C          C       0.23583   0.87902   0.50037
C          C       0.21934   0.89346   0.50703
C          C       0.18947   0.87838   0.53580
C          C       0.16958   0.89136   0.53518
C          C       0.13012   0.91448   0.53435
C          C       0.14088   0.90956   0.60921
C          C       0.16029   0.89786   0.60965
C          C       0.24031   0.83235   0.51870
C          C       0.11045   0.92779   0.53576
C          C       0.26976   0.79871   0.50979
C          C       0.27124   0.81434   0.58233
C          C       0.25644   0.83090   0.58696
C          C       0.28493   0.78074   0.50722
C          C       0.08133   0.96529   0.52759
C          C       0.06399   0.97911   0.51901
C          C       0.23571   0.95884   0.57978
N          N       0.37465   0.62500   0.51645
C          C       0.35167   0.61286   0.58162
C          C       0.36662   0.61887   0.66675
N          N       0.38634   0.60584   0.67275
C          C       0.40888   0.61622   0.60659
C          C       0.39356   0.61086   0.52126
H          H       0.42002   0.60241   0.60919
C          C       0.43367   0.64907   0.61879
C          C       0.14841   0.06999   0.51087
C          C       0.13797   0.11049   0.50275
C          C       0.17248   0.06097   0.50015
H          H       0.17971   0.06417   0.43611
H          H       0.19164   0.07483   0.54007
H          H       0.16321   0.03749   0.51665
H          H       0.14723   0.13392   0.48570
H          H       0.13175   0.10767   0.56761
H          H       0.14124   0.06663   0.57497
H          H       0.44520   0.65139   0.67735
H          H       0.44971   0.65566   0.56858
H          H       0.42364   0.66341   0.61908
H          H       0.34932   0.60892   0.71369
H          H       0.37989   0.64298   0.67691
H          H       0.10372   0.93260   0.59482
H          H       0.18479   0.81080   0.57637
H          H       0.15479   0.83635   0.58537
H          H       0.74777   0.81194   0.59400
H          H       0.74352   0.77716   0.55993
H          H       0.50081   0.71855   0.56343
H          H       0.60539   0.77103   0.37268
H          H       0.54958   0.74373   0.37039
H          H       0.26383   0.71906   0.33802
H          H       0.28258   0.60547   0.54815
H          H       0.17366   0.39869   0.39143
H          H       0.26252   0.53393   0.31770
H          H       0.30049   0.58766   0.30135
H          H       0.20504   0.45416   0.38727
H          H       0.28318   0.68370   0.32433
H          H       0.16408   0.88886   0.40247
H          H       0.35042   0.73311   0.51065
H          H       0.20945   0.94157   0.46895
H          H       0.24841   0.96630   0.45241
H          H       0.28090   0.87475   0.41022
H          H       0.29413   0.88573   0.51317
H          H       0.13013   0.91031   0.40134
H          H       0.46130   0.69055   0.31006
H          H       0.64052   0.82920   0.48236
H          H       0.46136   0.72465   0.55322
H          H       0.40632   0.70416   0.54236
H          H       0.40617   0.66984   0.29960
H          H       0.24491   0.55170   0.56525
H          H       0.37666   0.62304   0.38697
H          H       0.34147   0.59701   0.43050
H          H       0.07183   0.05713   0.36098
H          H       0.07877   0.02663   0.36987
H          H       0.98933   0.94684   0.43716
H          H       0.74497   0.82405   0.42468
H          H       0.22576   0.81745   0.39347
H          H       0.37539   0.71740   0.41104
H          H       0.25213   0.78812   0.38493
H          H       0.79996   0.85928   0.41930
H          H       0.17727   0.45964   0.63431
H          H       0.05941   0.16265   0.60052
H          H       0.09548   0.26562   0.66867
H          H       0.07540   0.21067   0.67058
H          H       0.03440   0.11615   0.59589
H          H       0.29877   0.78142   0.55939
H          H       0.16823   0.89378   0.66809
H          H       0.13405   0.91490   0.66735
H          H       0.14617   0.40418   0.63851
H          H       0.01801   0.06221   0.58198
H          H       0.02511   0.28622   0.61040
H          H       0.01170   0.24730   0.59568
H          H       0.04969   0.27157   0.62606
H          H       0.04590   0.25883   0.47777
H          H       0.02133   0.27348   0.46212
H          H       0.05168   0.37829   0.46548
H          H       0.07593   0.41087   0.40808
H          H       0.06186   0.37473   0.36315
H          H       0.04166   0.07471   0.32538
H          H       0.05825   0.12883   0.33859
H          H       0.16709   0.10491   0.42990
H          H       0.17982   0.36336   0.56570
H          H       0.15349   0.30804   0.57737
H          H       0.09295   0.09729   0.46430
H          H       0.11592   0.09562   0.38515
H          H       0.12836   0.05431   0.39119
H          H       0.11218   0.02729   0.47107
H          H       0.09756   0.26461   0.40286
H          H       0.07758   0.20962   0.40454
H          H       0.94759   0.92103   0.48265
H          H       0.89264   0.88741   0.49261
H          H       0.28394   0.64516   0.41070
H          H       0.32475   0.93810   0.46805
H          H       0.33403   0.91393   0.41298
H          H       0.31153   0.92713   0.36510
H          H       0.06895   0.93270   0.33722
H          H       0.93305   0.99467   0.42399
H          H       0.03744   0.95671   0.32346
H          H       0.87864   0.96195   0.44683
H          H       0.69549   0.86262   0.49619
H          H       0.25832   0.96549   0.60157
H          H       0.23206   0.97794   0.58343
H          H       0.21936   0.94075   0.61811
H          H       0.28400   0.81355   0.63533
H          H       0.09361   0.96780   0.58490
H          H       0.25745   0.84270   0.64377
H          H       0.61619   0.72247   0.46486
H          H       0.60959   0.72001   0.57294
H          H       0.79177   0.91337   0.60965
H          H       0.41075   0.62040   0.47392
H          H       0.37955   0.58684   0.51080
H          H       0.33747   0.58878   0.57265
H          H       0.33796   0.62356   0.57783
H          H       0.37351   0.58318   0.66913
H          H       0.21243   0.50657   0.56391
H          H       0.73717   0.87713   0.61872
H          H       0.84035   0.93318   0.53261
H          H       0.60476   0.76645   0.63833
H          H       0.54905   0.73887   0.63624
H          H       0.63479   0.69013   0.58829
H          H       0.60399   0.67299   0.51787
H          H       0.64139   0.69259   0.48020
H          H       0.71778   0.75341   0.68995
H          H       0.75426   0.78434   0.70958
H          H       0.72203   0.78820   0.72403
H          H       0.06250   0.99205   0.57014
H          H       0.11456   0.39599   0.40801
H          H       0.10437   0.39956   0.51034
H          H       0.33061   0.76806   0.52559
H          H       0.97579   0.02192   0.47386
C          C       0.02138   0.03302   0.94948
C          C       0.02927   0.99023   0.94028
C          C       0.99057   0.01302   0.95962
C          C       0.04144   0.02178   0.93864
H          H       0.97899   0.01934   0.91421
C          C       0.25131   0.53894   0.94267
C          C       0.26705   0.54949   0.86860
C          C       0.28850   0.57976   0.85934
C          C       0.29460   0.59995   0.92453
C          C       0.27846   0.58972   0.99805
C          C       0.31770   0.63186   0.91636
C          C       0.11024   0.34723   0.99946
C          C       0.09246   0.25275   0.96144
C          C       0.08139   0.22181   0.96242
C          C       0.17448   0.41204   0.94461
C          C       0.19221   0.44327   0.94238
N          N       0.09056   0.35574   0.97222
C          C       0.06391   0.32971   0.96661
N          N       0.06605   0.30547   0.98828
C          C       0.04010   0.27542   0.99875
C          C       0.09679   0.38633   0.95374
N          N       0.23045   0.50733   0.94960
N          N       0.05929   0.15824   0.97372
C          C       0.04884   0.12661   0.96887
C          C       0.03135   0.06539   0.95484
C          C       0.04111   0.08400   0.88533
C          C       0.05014   0.11445   0.89264
Au         Au      0.02474   0.32653   0.93615
C          C       0.06962   0.38765   0.92022
C          C       0.34894   0.64175   0.91928
C          C       0.46495   0.70815   0.93325
C          C       0.44925   0.69318   0.86150
C          C       0.41820   0.68159   0.85548
C          C       0.40251   0.68504   0.92114
C          C       0.41828   0.70084   0.99189
C          C       0.44926   0.71235   0.99802
C          C       0.97820   0.98182   0.95193
C          C       0.36970   0.67296   0.91573
C          C       0.65475   0.81967   0.99734
C          C       0.75531   0.84325   0.96638
C          C       0.78619   0.86330   0.96259
C          C       0.59305   0.76398   0.93036
C          C       0.56162   0.74872   0.92911
N          N       0.49690   0.72013   0.93686
N          N       0.85042   0.90260   0.98046
C          C       0.88209   0.92260   0.97322
C          C       0.90162   0.91121   0.98100
C          C       0.93260   0.93012   0.97400
C          C       0.94482   0.96090   0.95585
C          C       0.92451   0.97151   0.94283
C          C       0.89373   0.95290   0.95363
C          C       0.35928   0.69348   0.91303
C          C       0.29506   0.74522   0.93488
C          C       0.28243   0.72184   0.87701
C          C       0.29348   0.70203   0.86883
C          C       0.31779   0.70562   0.91766
C          C       0.33117   0.72973   0.97362
C          C       0.31999   0.74941   0.98216
C          C       0.32850   0.68370   0.91285
C          C       0.15799   0.89514   0.96035
C          C       0.13864   0.90694   0.95977
C          C       0.23861   0.81668   0.94629
C          C       0.25335   0.80007   0.94162
N          N       0.26358   0.89855   0.97136
C          C       0.26330   0.92467   0.96230
N          N       0.23685   0.92240   0.98376
C          C       0.23206   0.94812   0.99050
C          C       0.28845   0.89275   0.95560
N          N       0.28198   0.76412   0.94348
N          N       0.10101   0.93388   0.96774
C          C       0.08301   0.94809   0.96237
C          C       0.04852   0.97651   0.94545
C          C       0.04994   0.95933   0.88040
C          C       0.06743   0.94553   0.88858
Au         Au      0.29828   0.96349   0.92755
C          C       0.31671   0.91992   0.92311
C          C       0.30792   0.65290   0.91309
C          C       0.99820   0.97091   0.94265
C          C       0.36030   0.61985   0.93405
C          C       0.07278   0.04122   0.90351
N          N       0.09710   0.05858   0.96518
C          C       0.12116   0.05079   0.95527
N          N       0.16076   0.10171   0.98993
C          C       0.10992   0.09117   0.95001
H          H       0.46130   0.69055   0.81006
H          H       0.79996   0.85928   0.91931
H          H       0.25213   0.78812   0.88493
H          H       0.22576   0.81745   0.89347
H          H       0.28318   0.68370   0.82433
H          H       0.26383   0.71906   0.83802
H          H       0.87864   0.96195   0.94681
H          H       0.93305   0.99467   0.92400
H          H       0.94759   0.92103   0.98265
H          H       0.89264   0.88741   0.99261
H          H       0.60539   0.77103   0.87268
H          H       0.69549   0.86262   0.99620
H          H       0.26252   0.53393   0.81770
H          H       0.30049   0.58766   0.80135
H          H       0.64139   0.69260   0.98019
H          H       0.20504   0.45416   0.88727
H          H       0.05168   0.37830   0.96549
H          H       0.07593   0.41087   0.90808
H          H       0.06185   0.37472   0.86316
H          H       0.04166   0.07471   0.82538
H          H       0.05825   0.12883   0.83859
H          H       0.17366   0.39869   0.89143
H          H       0.16408   0.88886   0.90247
H          H       0.37539   0.71740   0.91104
H          H       0.07183   0.05713   0.86098
H          H       0.07877   0.02663   0.86987
H          H       0.11218   0.02729   0.97107
H          H       0.12836   0.05431   0.89119
H          H       0.16709   0.10491   0.92988
H          H       0.11592   0.09562   0.88515
H          H       0.09295   0.09729   0.96430
H          H       0.07758   0.20962   0.90454
H          H       0.09756   0.26461   0.90286
H          H       0.61619   0.72248   0.96486
H          H       0.14723   0.13392   0.98571
H          H       0.41075   0.62040   0.97391
H          H       0.40616   0.66984   0.79960
H          H       0.64052   0.82920   0.98233
H          H       0.74497   0.82405   0.92468
H          H       0.34147   0.59701   0.93050
H          H       0.37666   0.62304   0.88697
H          H       0.98933   0.94684   0.93716
H          H       0.06895   0.93270   0.83722
H          H       0.32475   0.93810   0.96805
H          H       0.33403   0.91393   0.91298
H          H       0.31153   0.92713   0.86510
H          H       0.54958   0.74373   0.87039
H          H       0.11455   0.39599   0.90799
H          H       0.02133   0.27348   0.96212
H          H       0.04590   0.25883   0.97777
H          H       0.17971   0.06417   0.93611
H          H       0.28090   0.87475   0.91022
H          H       0.03744   0.95671   0.82346
H          H       0.28394   0.64516   0.91070
H          H       0.13013   0.91031   0.90134
H          H       0.24841   0.96630   0.95241
H          H       0.20945   0.94157   0.96895
H          H       0.98509   0.01698   0.02148
C          C       0.25712   0.55947   0.00753
C          C       0.14120   0.31893   0.05552
C          C       0.15615   0.35027   0.04859
C          C       0.14099   0.36498   0.01985
C          C       0.09539   0.31645   0.00803
C          C       0.11058   0.30138   0.03465
C          C       0.09702   0.26856   0.03560
C          C       0.07515   0.20637   0.03780
C          C       0.08018   0.22241   0.11186
C          C       0.09128   0.25333   0.11081
C          C       0.15777   0.39788   0.01507
C          C       0.06391   0.17381   0.04094
C          C       0.19356   0.46069   0.01096
C          C       0.17664   0.44635   0.08121
C          C       0.15900   0.41513   0.08345
C          C       0.21289   0.49362   0.01132
C          C       0.03677   0.10734   0.03701
C          C       0.02784   0.07702   0.02933
C          C       0.03100   0.26972   0.08918
C          C       0.68587   0.83862   0.00581
C          C       0.64168   0.78855   0.00796
C          C       0.66087   0.77714   0.02793
C          C       0.69136   0.79590   0.04011
C          C       0.70489   0.82714   0.02654
C          C       0.73758   0.84779   0.02380
C          C       0.79954   0.88863   0.01444
C          C       0.78164   0.89357   0.07007
C          C       0.75089   0.87323   0.07497
C          C       0.60870   0.77022   0.00564
C          C       0.83188   0.91036   0.01035
C          C       0.54550   0.73979   0.00337
C          C       0.56132   0.74603   0.07848
C          C       0.59269   0.76136   0.07964
N          N       0.65415   0.74829   0.03836
C          C       0.68075   0.75039   0.05996
N          N       0.70368   0.77904   0.06395
C          C       0.51243   0.72520   0.00461
C          C       0.73366   0.78767   0.09701
C          C       0.62488   0.72101   0.02516
C          C       0.62637   0.69211   0.02808
C          C       0.73180   0.77769   0.18657
C          C       0.17753   0.84844   0.06123
C          C       0.19449   0.83393   0.05591
C          C       0.22384   0.84887   0.02451
C          C       0.23583   0.87902   0.00037
C          C       0.21934   0.89346   0.00702
C          C       0.18947   0.87838   0.03580
C          C       0.16958   0.89136   0.03518
C          C       0.13012   0.91448   0.03435
C          C       0.14088   0.90956   0.10922
C          C       0.16029   0.89786   0.10966
C          C       0.24031   0.83235   0.01870
C          C       0.11045   0.92779   0.03576
C          C       0.26976   0.79871   0.00979
C          C       0.27124   0.81434   0.08233
C          C       0.25644   0.83090   0.08696
C          C       0.28493   0.78074   0.00722
C          C       0.08133   0.96529   0.02759
C          C       0.06399   0.97911   0.01901
C          C       0.23571   0.95884   0.07978
N          N       0.37465   0.62500   0.01646
C          C       0.35167   0.61286   0.08162
C          C       0.36662   0.61887   0.16675
N          N       0.38634   0.60584   0.17275
C          C       0.40888   0.61622   0.10659
C          C       0.39356   0.61086   0.02125
H          H       0.42002   0.60241   0.10919
C          C       0.43367   0.64907   0.11879
C          C       0.14841   0.06999   0.01086
C          C       0.13797   0.11049   0.00275
C          C       0.17248   0.06097   0.00015
Au         Au      0.68651   0.71560   0.08460
Cl         Cl      0.69302   0.67613   0.11248
H          H       0.35042   0.73311   0.01065
H          H       0.84035   0.93318   0.03262
H          H       0.74777   0.81194   0.09400
H          H       0.74352   0.77716   0.05993
H          H       0.50081   0.71855   0.06343
H          H       0.17727   0.45964   0.13431
H          H       0.17982   0.36336   0.06571
H          H       0.24491   0.55170   0.06525
H          H       0.16823   0.89378   0.16810
H          H       0.13405   0.91490   0.16736
H          H       0.18479   0.81080   0.07637
H          H       0.29877   0.78142   0.05939
H          H       0.37351   0.58318   0.16913
H          H       0.28258   0.60547   0.04815
H          H       0.44520   0.65139   0.17735
H          H       0.44971   0.65566   0.06858
H          H       0.42364   0.66341   0.11908
H          H       0.33747   0.58878   0.07265
H          H       0.33796   0.62356   0.07783
H          H       0.25832   0.96549   0.10157
H          H       0.23206   0.97794   0.08343
H          H       0.21936   0.94075   0.11811
H          H       0.06250   0.99205   0.07014
H          H       0.34932   0.60892   0.21369
H          H       0.37989   0.64298   0.17691
H          H       0.28400   0.81355   0.13533
H          H       0.25745   0.84270   0.14377
H          H       0.15479   0.83635   0.08540
H          H       0.63479   0.69012   0.08827
H          H       0.60399   0.67299   0.01786
H          H       0.71778   0.75341   0.18997
H          H       0.75426   0.78434   0.20959
H          H       0.72203   0.78820   0.22403
H          H       0.54905   0.73887   0.13625
H          H       0.60476   0.76645   0.13833
H          H       0.79177   0.91337   0.10965
H          H       0.02511   0.28622   0.11040
H          H       0.01170   0.24730   0.09568
H          H       0.04969   0.27157   0.12606
H          H       0.15349   0.30804   0.07739
H          H       0.09548   0.26562   0.16867
H          H       0.21243   0.50657   0.06391
H          H       0.03440   0.11615   0.09589
H          H       0.05941   0.16265   0.10052
H          H       0.14617   0.40418   0.13852
H          H       0.07540   0.21067   0.17058
H          H       0.01801   0.06221   0.08198
H          H       0.14124   0.06663   0.07496
H          H       0.60959   0.72001   0.07295
H          H       0.09361   0.96780   0.08490
H          H       0.13175   0.10767   0.06761
H          H       0.37955   0.58684   0.01078
H          H       0.40632   0.70416   0.04236
H          H       0.10372   0.93260   0.09482
H          H       0.10438   0.39956   0.01033
H          H       0.19164   0.07483   0.04007
H          H       0.16321   0.03749   0.01666
H          H       0.46136   0.72465   0.05322
H          H       0.29413   0.88573   0.01317
H          H       0.33061   0.76807   0.02557
H          H       0.73717   0.87713   0.11872
C          C       0.00255   0.02043   0.20888
C          C       0.01200   0.97958   0.18962
C          C       0.97148   0.00087   0.20212
C          C       0.53552   0.28809   0.12374
C          C       0.54738   0.27498   0.07136
C          C       0.57825   0.28520   0.07066
C          C       0.59800   0.30903   0.12215
C          C       0.58619   0.32265   0.17336
C          C       0.55534   0.31242   0.17408
C          C       0.02346   0.01059   0.19820
C          C       0.63071   0.31937   0.12357
C          C       0.31532   0.16766   0.19887
C          C       0.34559   0.18616   0.17811
C          C       0.35863   0.21757   0.17696
C          C       0.33979   0.22951   0.19546
C          C       0.31079   0.21148   0.22329
C          C       0.29723   0.17987   0.22224
C          C       0.26479   0.15903   0.23403
C          C       0.24334   0.16152   0.18553
C          C       0.21277   0.14073   0.19376
C          C       0.20329   0.11645   0.24828
C          C       0.22479   0.11385   0.29594
C          C       0.25525   0.13504   0.28926
C          C       0.39173   0.23582   0.17253
C          C       0.17145   0.09289   0.25331
C          C       0.40736   0.23194   0.10733
C          C       0.43880   0.24714   0.10763
C          C       0.45509   0.26635   0.17352
C          C       0.43939   0.27047   0.23805
C          C       0.40801   0.25517   0.23794
N          N       0.34560   0.25827   0.19290
C          C       0.32091   0.25728   0.22516
N          N       0.29950   0.22928   0.24649
C          C       0.48823   0.28147   0.17802
C          C       0.27242   0.22238   0.29340
C          C       0.37023   0.28487   0.15404
N          N       0.50345   0.27587   0.12404
N          N       0.15051   0.09664   0.21972
C          C       0.11914   0.07456   0.21527
C          C       0.09857   0.08420   0.19973
C          C       0.06808   0.06363   0.18993
C          C       0.05684   0.03249   0.19862
C          C       0.07811   0.02297   0.21113
C          C       0.10878   0.04365   0.21880
Au         Au      0.31644   0.29334   0.23858
Cl         Cl      0.31139   0.33429   0.25374
C          C       0.35869   0.29466   0.07994
C          C       0.28061   0.23974   0.37485
C          C       0.64082   0.29855   0.12230
C          C       0.70096   0.24334   0.14210
C          C       0.69750   0.25366   0.06499
C          C       0.68719   0.27419   0.05930
C          C       0.68061   0.28494   0.13106
C          C       0.68411   0.27481   0.20830
C          C       0.69427   0.25422   0.21402
C          C       0.67158   0.30800   0.12640
C          C       0.81980   0.14121   0.25598
C          C       0.80262   0.15521   0.24239
C          C       0.77233   0.13855   0.21735
C          C       0.75993   0.10735   0.20633
C          C       0.77655   0.09343   0.22256
C          C       0.80712   0.11003   0.24605
C          C       0.82697   0.09710   0.25361
C          C       0.83769   0.09009   0.18250
C          C       0.85725   0.07864   0.18923
C          C       0.86676   0.07449   0.26732
C          C       0.85662   0.08234   0.33822
C          C       0.83709   0.09384   0.33137
C          C       0.75490   0.15417   0.21113
C          C       0.88706   0.06201   0.27618
C          C       0.75939   0.17343   0.14485
C          C       0.74441   0.18987   0.14183
C          C       0.72517   0.18771   0.20613
C          C       0.72106   0.16869   0.27292
C          C       0.73599   0.15221   0.27572
N          N       0.73194   0.08628   0.18149
C          C       0.73199   0.06007   0.18568
N          N       0.75865   0.06346   0.21089
C          C       0.71014   0.20586   0.20655
C          C       0.76377   0.03846   0.22925
C          C       0.70705   0.08933   0.14780
N          N       0.71303   0.22341   0.14533
N          N       0.89673   0.05449   0.21159
C          C       0.91624   0.04189   0.21127
C          C       0.91930   0.02956   0.13744
C          C       0.93731   0.01629   0.13417
C          C       0.95213   0.01462   0.20513
C          C       0.95089   0.02887   0.27748
C          C       0.93282   0.04209   0.28122
Au         Au      0.69639   0.02052   0.15835
C          C       0.71321   0.09999   0.05857
C          C       0.76164   0.03243   0.32177
C          C       0.69300   0.33897   0.13134
C          C       0.96008   0.96960   0.19189
C          C       0.74637   0.45362   0.16355
C          C       0.73182   0.44232   0.08758
C          C       0.71070   0.41190   0.07820
C          C       0.70385   0.39233   0.14500
C          C       0.71784   0.40355   0.22157
C          C       0.73894   0.43395   0.23108
C          C       0.98105   0.95920   0.19054
C          C       0.68271   0.35991   0.13450
C          C       0.86463   0.67372   0.29053
C          C       0.84872   0.64236   0.28279
C          C       0.86113   0.62718   0.24093
C          C       0.89026   0.64449   0.20839
C          C       0.90618   0.67530   0.21766
C          C       0.89357   0.69088   0.25729
C          C       0.90765   0.72381   0.25994
C          C       0.90940   0.73972   0.18795
C          C       0.92078   0.77070   0.19124
C          C       0.92991   0.78611   0.26707
C          C       0.92754   0.76999   0.33920
C          C       0.91633   0.73905   0.33574
C          C       0.84339   0.59428   0.23512
C          C       0.94104   0.81864   0.27275
C          C       0.82359   0.58056   0.16856
C          C       0.80538   0.54938   0.16554
C          C       0.80652   0.53151   0.22967
C          C       0.82638   0.54540   0.29625
C          C       0.84456   0.57659   0.29920
N          N       0.90747   0.63546   0.16795
C          C       0.93382   0.66120   0.15512
N          N       0.93385   0.68575   0.18498
C          C       0.78683   0.49859   0.22934
C          C       0.96069   0.71553   0.18968
C          C       0.89935   0.60467   0.14453
N          N       0.76750   0.48520   0.16995
N          N       0.94545   0.83461   0.20671
C          C       0.95494   0.86604   0.20530
C          C       0.96845   0.88236   0.13373
C          C       0.97722   0.91278   0.12875
C          C       0.97162   0.92700   0.19442
C          C       0.95844   0.91088   0.26642
C          C       0.94994   0.88058   0.27188
Au         Au      0.97013   0.66357   0.10384
C          C       0.92392   0.60262   0.09747
C          C       0.97451   0.72152   0.27607
C          C       0.65190   0.35002   0.12948
C          C       0.72659   0.35003   0.13136
N          N       0.74092   0.37053   0.06137
C          C       0.77350   0.38968   0.07544
C          C       0.78744   0.41180   0.00337
C          C       0.82137   0.43159   0.01648
H          H       0.77738   0.42666   0.00134
C          C       0.92709   0.94817   0.17013
N          N       0.90659   0.94062   0.24185
C          C       0.88853   0.90774   0.25473
C          C       0.86033   0.89313   0.19861
N          N       0.84107   0.90687   0.20810
C          C       0.85447   0.93394   0.25983
C          C       0.88750   0.95498   0.23726
C          C       0.84242   0.85912   0.21241
H          H       0.86817   0.89657   0.13397
H          H       0.54657   0.32332   0.21379
H          H       0.35922   0.17606   0.16263
H          H       0.60124   0.34137   0.21290
H          H       0.53240   0.25662   0.03071
H          H       0.58705   0.27461   0.02989
H          H       0.26001   0.19845   0.30633
H          H       0.25842   0.22848   0.25671
H          H       0.50011   0.29757   0.22735
H          H       0.73937   0.02681   0.34310
H          H       0.76550   0.01380   0.33417
H          H       0.77853   0.05237   0.35413
H          H       0.71581   0.08379   0.02139
H          H       0.69448   0.10212   0.03460
H          H       0.73374   0.12167   0.05598
H          H       0.12474   0.03574   0.22757
H          H       0.05259   0.07170   0.17528
H          H       0.73702   0.45738   0.03533
H          H       0.83544   0.85461   0.27659
H          H       0.82265   0.84924   0.17233
H          H       0.85647   0.84938   0.19810
H          H       0.82141   0.89151   0.23396
H          H       0.39610   0.25827   0.28893
H          H       0.97215   0.87127   0.08155
H          H       0.82645   0.62962   0.30960
H          H       0.94414   0.61155   0.13566
H          H       0.91631   0.57927   0.08235
H          H       0.92885   0.61557   0.04081
H          H       0.85442   0.68495   0.32277
H          H       0.95479   0.92204   0.31852
H          H       0.93941   0.86815   0.32783
H          H       0.64428   0.36636   0.13018
H          H       0.98081   0.70473   0.29104
H          H       0.99439   0.74373   0.27822
H          H       0.95820   0.72038   0.32067
H          H       0.98843   0.92544   0.07368
H          H       0.82238   0.59423   0.11900
H          H       0.85968   0.58717   0.35150
H          H       0.94562   0.82940   0.33315
H          H       0.79023   0.53886   0.11326
H          H       0.69955   0.40341   0.01883
H          H       0.91433   0.72673   0.39221
H          H       0.71224   0.38850   0.27400
H          H       0.73016   0.33093   0.12574
H          H       0.73656   0.36186   0.18897
H          H       0.74969   0.44248   0.29087
H          H       0.84329   0.15469   0.27448
H          H       0.69703   0.24654   0.27437
H          H       0.38724   0.27960   0.13349
H          H       0.38012   0.30308   0.19898
H          H       0.67889   0.28302   0.26419
H          H       0.19622   0.14335   0.15778
H          H       0.25055   0.17973   0.14131
H          H       0.70288   0.24563   0.00902
H          H       0.81291   0.17933   0.25138
H          H       0.45072   0.24408   0.05658
H          H       0.45177   0.28572   0.28862
H          H       0.39495   0.21701   0.05622
H          H       0.16543   0.07210   0.28559
H          H       0.27171   0.13293   0.32717
H          H       0.21768   0.09517   0.33847
H          H       0.93448   0.78167   0.39830
H          H       0.90186   0.72789   0.12919
H          H       0.92258   0.78296   0.13478
H          H       0.82764   0.53179   0.34593
H          H       0.88826   0.96284   0.17443
H          H       0.89679   0.97401   0.27960
H          H       0.78388   0.37570   0.07961
H          H       0.77738   0.40216   0.13283
H          H       0.87927   0.59542   0.10569
H          H       0.89456   0.59140   0.20054
H          H       0.95450   0.73242   0.17495
H          H       0.97711   0.71676   0.14532
H          H       0.78854   0.48539   0.27946
H          H       0.85326   0.92748   0.32431
H          H       0.84193   0.94570   0.25089
H          H       0.92508   0.92749   0.14587
H          H       0.92015   0.95859   0.12290
H          H       0.88152   0.90351   0.31892
H          H       0.90239   0.89774   0.24107
H          H       0.83170   0.41755   0.01993
H          H       0.82567   0.44421   0.07378
H          H       0.86517   0.07290   0.13372
H          H       0.30562   0.14341   0.19689
H          H       0.62454   0.27470   0.11807
H          H       0.83074   0.09358   0.12177
H          H       0.00804   0.03792   0.16326
H          H       0.00653   0.03013   0.27061
H          H       0.34172   0.30003   0.10019
H          H       0.37728   0.31438   0.05208
H          H       0.34884   0.27655   0.03470
H          H       0.29296   0.26370   0.36235
H          H       0.26017   0.23422   0.40829
H          H       0.29455   0.23368   0.41198
H          H       0.10641   0.10810   0.19519
H          H       0.70440   0.10556   0.18469
H          H       0.68647   0.06769   0.15010
H          H       0.82972   0.10029   0.38670
H          H       0.77462   0.17560   0.09546
H          H       0.89401   0.05907   0.33753
H          H       0.73292   0.13779   0.32829
H          H       0.70613   0.16676   0.32291
H          H       0.74765   0.20442   0.08944
H          H       0.86402   0.07945   0.39899
H          H       0.78605   0.04400   0.20818
H          H       0.74689   0.01844   0.19715
H          H       0.69640   0.20451   0.25907
H          H       0.90754   0.03032   0.08207
H          H       0.93984   0.00718   0.07602
H          H       0.93156   0.05257   0.33833
H          H       0.96412   0.02966   0.33128
H          H       0.07045   0.99909   0.21485
H          H       0.02757   0.97116   0.18206
N          N       0.78141   0.39521   0.92502
C          C       0.74895   0.37592   0.91172
C          C       0.73518   0.35383   0.98309
H          H       0.74505   0.36348   0.85424
H          H       0.73843   0.38978   0.90794
H          H       0.68428   0.28182   0.99903
H          H       0.79127   0.38232   0.92674
H          H       0.71104   0.34001   0.97310
H          H       0.74526   0.33956   0.98608
H          H       0.83087   0.44708   0.96506
C          C       0.00255   0.02043   0.70888
C          C       0.01200   0.97958   0.68962
C          C       0.97148   0.00087   0.70212
N          N       0.78141   0.39521   0.42502
C          C       0.74895   0.37592   0.41172
C          C       0.73518   0.35383   0.48308
C          C       0.53552   0.28809   0.62374
C          C       0.54738   0.27498   0.57135
C          C       0.57825   0.28520   0.57066
C          C       0.59800   0.30903   0.62215
C          C       0.58619   0.32265   0.67336
C          C       0.55534   0.31242   0.67407
C          C       0.02346   0.01059   0.69820
C          C       0.63071   0.31937   0.62357
C          C       0.31532   0.16766   0.69887
C          C       0.34559   0.18616   0.67812
C          C       0.35863   0.21757   0.67696
C          C       0.33979   0.22951   0.69546
C          C       0.31079   0.21148   0.72329
C          C       0.29723   0.17987   0.72224
C          C       0.26479   0.15903   0.73403
C          C       0.24334   0.16152   0.68553
C          C       0.21277   0.14073   0.69376
C          C       0.20329   0.11645   0.74828
C          C       0.22479   0.11385   0.79594
C          C       0.25525   0.13504   0.78926
C          C       0.39173   0.23582   0.67253
C          C       0.17145   0.09289   0.75331
C          C       0.40736   0.23194   0.60733
C          C       0.43880   0.24714   0.60764
C          C       0.45509   0.26635   0.67352
C          C       0.43939   0.27047   0.73805
C          C       0.40801   0.25517   0.73794
N          N       0.34560   0.25827   0.69289
C          C       0.32091   0.25728   0.72516
N          N       0.29950   0.22928   0.74649
C          C       0.48823   0.28147   0.67802
C          C       0.27242   0.22238   0.79340
C          C       0.37023   0.28487   0.65404
N          N       0.50345   0.27587   0.62404
N          N       0.15051   0.09664   0.71972
C          C       0.11914   0.07456   0.71527
C          C       0.09857   0.08420   0.69973
C          C       0.06808   0.06363   0.68993
C          C       0.05684   0.03249   0.69861
C          C       0.07811   0.02297   0.71114
C          C       0.10878   0.04365   0.71880
Au         Au      0.31644   0.29334   0.73859
Cl         Cl      0.31139   0.33429   0.75374
C          C       0.35869   0.29466   0.57994
C          C       0.28061   0.23974   0.87485
C          C       0.64082   0.29855   0.62230
C          C       0.70096   0.24334   0.64210
C          C       0.69750   0.25366   0.56498
C          C       0.68719   0.27419   0.55930
C          C       0.68061   0.28494   0.63106
C          C       0.68411   0.27481   0.70830
C          C       0.69427   0.25422   0.71402
C          C       0.67158   0.30800   0.62640
C          C       0.81980   0.14121   0.75598
C          C       0.80262   0.15521   0.74240
C          C       0.77233   0.13855   0.71735
C          C       0.75993   0.10735   0.70633
C          C       0.77655   0.09343   0.72256
C          C       0.80712   0.11003   0.74604
C          C       0.82697   0.09710   0.75361
C          C       0.83769   0.09009   0.68250
C          C       0.85725   0.07864   0.68923
C          C       0.86676   0.07449   0.76732
C          C       0.85662   0.08234   0.83822
C          C       0.83709   0.09384   0.83137
C          C       0.75490   0.15417   0.71113
C          C       0.88706   0.06201   0.77618
C          C       0.75939   0.17343   0.64485
C          C       0.74441   0.18987   0.64183
C          C       0.72517   0.18771   0.70613
C          C       0.72106   0.16869   0.77292
C          C       0.73599   0.15221   0.77572
N          N       0.73194   0.08628   0.68149
C          C       0.73199   0.06007   0.68568
N          N       0.75865   0.06346   0.71089
C          C       0.71014   0.20586   0.70655
C          C       0.76377   0.03846   0.72925
C          C       0.70705   0.08933   0.64780
N          N       0.71303   0.22341   0.64533
N          N       0.89673   0.05449   0.71159
C          C       0.91624   0.04189   0.71127
C          C       0.91930   0.02956   0.63743
C          C       0.93731   0.01629   0.63417
C          C       0.95213   0.01462   0.70513
C          C       0.95089   0.02887   0.77748
C          C       0.93282   0.04209   0.78122
Au         Au      0.69639   0.02052   0.65835
C          C       0.71321   0.09999   0.55857
C          C       0.76164   0.03243   0.82176
C          C       0.69300   0.33897   0.63134
C          C       0.96008   0.96960   0.69189
C          C       0.74637   0.45362   0.66355
C          C       0.73182   0.44232   0.58759
C          C       0.71070   0.41190   0.57819
C          C       0.70385   0.39233   0.64500
C          C       0.71784   0.40355   0.72157
C          C       0.73894   0.43395   0.73108
C          C       0.98105   0.95920   0.69054
C          C       0.68271   0.35991   0.63450
C          C       0.86463   0.67372   0.79053
C          C       0.84872   0.64236   0.78279
C          C       0.86113   0.62718   0.74093
C          C       0.89026   0.64449   0.70839
C          C       0.90618   0.67530   0.71766
C          C       0.89357   0.69088   0.75729
C          C       0.90765   0.72381   0.75994
C          C       0.90940   0.73972   0.68795
C          C       0.92078   0.77070   0.69124
C          C       0.92991   0.78611   0.76707
C          C       0.92754   0.76999   0.83920
C          C       0.91633   0.73905   0.83574
C          C       0.84339   0.59428   0.73512
C          C       0.94104   0.81864   0.77275
C          C       0.82359   0.58056   0.66856
C          C       0.80538   0.54938   0.66554
C          C       0.80652   0.53151   0.72967
C          C       0.82638   0.54540   0.79625
C          C       0.84456   0.57659   0.79920
N          N       0.90747   0.63546   0.66796
C          C       0.93382   0.66120   0.65512
N          N       0.93385   0.68575   0.68498
C          C       0.78683   0.49859   0.72933
C          C       0.96069   0.71553   0.68968
C          C       0.89935   0.60467   0.64453
N          N       0.76750   0.48520   0.66995
N          N       0.94545   0.83461   0.70671
C          C       0.95494   0.86604   0.70530
C          C       0.96845   0.88236   0.63372
C          C       0.97722   0.91278   0.62875
C          C       0.97162   0.92700   0.69442
C          C       0.95844   0.91088   0.76642
C          C       0.94994   0.88058   0.77188
Au         Au      0.97013   0.66357   0.60384
C          C       0.92392   0.60262   0.59747
C          C       0.97451   0.72152   0.77607
C          C       0.65190   0.35002   0.62948
C          C       0.72659   0.35003   0.63136
N          N       0.74092   0.37053   0.56137
C          C       0.77350   0.38968   0.57544
C          C       0.78744   0.41180   0.50337
C          C       0.82137   0.43159   0.51648
H          H       0.77738   0.42666   0.50133
C          C       0.92709   0.94817   0.67013
N          N       0.90659   0.94062   0.74185
C          C       0.88853   0.90774   0.75473
C          C       0.86033   0.89313   0.69861
N          N       0.84107   0.90687   0.70810
C          C       0.85447   0.93394   0.75983
C          C       0.88750   0.95498   0.73726
C          C       0.84242   0.85912   0.71241
H          H       0.86817   0.89657   0.63397
H          H       0.96412   0.02966   0.83128
H          H       0.88826   0.96284   0.67443
H          H       0.89679   0.97401   0.77960
H          H       0.82141   0.89151   0.73396
H          H       0.70440   0.10556   0.68469
H          H       0.68647   0.06769   0.65010
H          H       0.69640   0.20451   0.75907
H          H       0.74765   0.20442   0.58944
H          H       0.86517   0.07290   0.63372
H          H       0.77462   0.17560   0.59546
H          H       0.67889   0.28302   0.76419
H          H       0.34172   0.30003   0.60019
H          H       0.37728   0.31439   0.55208
H          H       0.34884   0.27655   0.53470
H          H       0.29296   0.26370   0.86235
H          H       0.26017   0.23422   0.90829
H          H       0.29455   0.23368   0.91198
H          H       0.45177   0.28572   0.78862
H          H       0.39610   0.25827   0.78893
H          H       0.05259   0.07170   0.67529
H          H       0.50011   0.29757   0.72735
H          H       0.88152   0.90351   0.81892
H          H       0.90239   0.89774   0.74107
H          H       0.92508   0.92749   0.64587
H          H       0.92015   0.95859   0.62290
H          H       0.83079   0.44745   0.46582
H          H       0.82569   0.44380   0.57452
H          H       0.83178   0.41760   0.51842
H          H       0.78388   0.37570   0.57961
H          H       0.77738   0.40216   0.63283
H          H       0.64428   0.36636   0.63018
H          H       0.94413   0.61155   0.63566
H          H       0.91631   0.57927   0.58234
H          H       0.92885   0.61557   0.54082
H          H       0.93941   0.86815   0.82783
H          H       0.16543   0.07210   0.78559
H          H       0.60123   0.34137   0.71290
H          H       0.84329   0.15469   0.77448
H          H       0.69703   0.24654   0.77437
H          H       0.39495   0.21702   0.55621
H          H       0.35923   0.17606   0.66266
H          H       0.54657   0.32332   0.71377
H          H       0.53240   0.25662   0.53069
H          H       0.83544   0.85461   0.77659
H          H       0.82265   0.84924   0.67233
H          H       0.85647   0.84938   0.69810
H          H       0.85326   0.92748   0.82431
H          H       0.84193   0.94570   0.75089
H          H       0.73016   0.33093   0.62574
H          H       0.73656   0.36186   0.68897
H          H       0.89401   0.05907   0.83753
H          H       0.81290   0.17933   0.75140
H          H       0.45072   0.24408   0.55659
H          H       0.79009   0.41002   0.37784
H          H       0.93156   0.05257   0.83833
H          H       0.73292   0.13779   0.82829
H          H       0.93984   0.00718   0.57602
H          H       0.79023   0.53886   0.61326
H          H       0.91433   0.72673   0.89221
H          H       0.94562   0.82940   0.83315
H          H       0.90186   0.72789   0.62919
H          H       0.82764   0.53179   0.84593
H          H       0.98081   0.70473   0.79104
H          H       0.99439   0.74373   0.77822
H          H       0.95820   0.72038   0.82067
H          H       0.97215   0.87127   0.58153
H          H       0.87927   0.59542   0.60569
H          H       0.89456   0.59140   0.70054
H          H       0.95450   0.73242   0.67495
H          H       0.97711   0.71676   0.64532
H          H       0.73702   0.45739   0.53534
H          H       0.82645   0.62962   0.80960
H          H       0.74969   0.44248   0.79087
H          H       0.74526   0.33956   0.48607
H          H       0.71104   0.34001   0.47308
H          H       0.74505   0.36349   0.35424
H          H       0.73843   0.38978   0.40794
H          H       0.30562   0.14341   0.69688
H          H       0.58705   0.27461   0.52990
H          H       0.25055   0.17973   0.64131
H          H       0.12474   0.03574   0.72756
H          H       0.00804   0.03792   0.66326
H          H       0.00653   0.03013   0.77061
H          H       0.62454   0.27470   0.61807
H          H       0.19622   0.14335   0.65778
H          H       0.70288   0.24563   0.50901
H          H       0.68428   0.28182   0.49903
H          H       0.21768   0.09517   0.83847
H          H       0.83074   0.09358   0.62177
H          H       0.86402   0.07945   0.89899
H          H       0.82972   0.10029   0.88670
H          H       0.27171   0.13293   0.82717
H          H       0.70613   0.16676   0.82291
H          H       0.26001   0.19845   0.80633
H          H       0.25842   0.22848   0.75671
H          H       0.78605   0.04400   0.70818
H          H       0.74689   0.01844   0.69715
H          H       0.10641   0.10810   0.69519
H          H       0.38724   0.27960   0.63349
H          H       0.38011   0.30308   0.69898
H          H       0.90754   0.03032   0.58205
H          H       0.71581   0.08379   0.52139
H          H       0.69448   0.10212   0.53460
H          H       0.73374   0.12167   0.55598
H          H       0.73937   0.02681   0.84309
H          H       0.76550   0.01380   0.83416
H          H       0.77853   0.05237   0.85413
H          H       0.69956   0.40341   0.51882
H          H       0.95479   0.92204   0.81852
H          H       0.98843   0.92545   0.57368
H          H       0.78854   0.48539   0.77945
H          H       0.71224   0.38850   0.77401
H          H       0.85442   0.68495   0.82277
H          H       0.85968   0.58717   0.85150
H          H       0.82238   0.59423   0.61899
H          H       0.93448   0.78167   0.89829
H          H       0.92258   0.78296   0.63478
H          H       0.07045   0.99909   0.71489
H          H       0.02757   0.97116   0.68206
