data_crystal

_cell_length_a    39.89200
_cell_length_b    39.89200
_cell_length_c    38.52600
_cell_angle_alpha 90.00000
_cell_angle_beta  90.00000
_cell_angle_gamma 90.00000

_space_group_name_Hall 'P 1'
_space_group_name_H-M_alt 'P 1'

loop_
_symmetry_equiv_pos_as_xyz
 'x,y,z'

loop_
_atom_site_label
_atom_site_type_symbol
_atom_site_fract_x
_atom_site_fract_y
_atom_site_fract_z
C          C       0.49838   0.03034   0.41466
C          C       0.50162   0.96966   0.41466
C          C       0.96966   0.49838   0.41466
C          C       0.03034   0.50162   0.41466
C          C       0.99838   0.53034   0.16466
C          C       0.00162   0.46966   0.16466
C          C       0.46966   0.99838   0.16466
C          C       0.53034   0.00162   0.16466
C          C       0.46947   0.00100   0.37384
C          C       0.53053   0.99900   0.37384
C          C       0.99900   0.46947   0.37384
C          C       0.00100   0.53053   0.37384
C          C       0.96947   0.50100   0.12384
C          C       0.03053   0.49900   0.12384
C          C       0.49900   0.96947   0.12384
C          C       0.50100   0.03053   0.12384
C          C       0.46964   0.04821   0.40721
C          C       0.53036   0.95179   0.40721
C          C       0.95179   0.46964   0.40721
C          C       0.04821   0.53036   0.40721
C          C       0.96964   0.54821   0.15721
C          C       0.03036   0.45179   0.15721
C          C       0.45179   0.96964   0.15721
C          C       0.54821   0.03036   0.15721
C          C       0.46364   0.07993   0.42092
C          C       0.53636   0.92007   0.42092
C          C       0.92007   0.46364   0.42092
C          C       0.07993   0.53636   0.42092
C          C       0.96364   0.57993   0.17092
C          C       0.03636   0.42007   0.17092
C          C       0.42007   0.96364   0.17092
C          C       0.57993   0.03636   0.17092
C          C       0.48859   0.09476   0.44148
C          C       0.51141   0.90524   0.44148
C          C       0.90524   0.48859   0.44148
C          C       0.09476   0.51141   0.44148
C          C       0.98859   0.59476   0.19148
C          C       0.01141   0.40524   0.19148
C          C       0.40524   0.98859   0.19148
C          C       0.59476   0.01141   0.19148
C          C       0.51939   0.07816   0.44770
C          C       0.48061   0.92184   0.44770
C          C       0.92184   0.51939   0.44770
C          C       0.07816   0.48061   0.44770
C          C       0.01939   0.57816   0.19771
C          C       0.98061   0.42184   0.19771
C          C       0.42184   0.01939   0.19771
C          C       0.57816   0.98061   0.19771
C          C       0.52398   0.04522   0.43477
C          C       0.47602   0.95478   0.43477
C          C       0.95478   0.52398   0.43477
C          C       0.04522   0.47602   0.43477
C          C       0.02398   0.54522   0.18477
C          C       0.97602   0.45478   0.18477
C          C       0.45478   0.02398   0.18477
C          C       0.54522   0.97602   0.18477
C          C       0.45448   0.97464   0.35485
C          C       0.54552   0.02536   0.35485
C          C       0.02536   0.45448   0.35485
C          C       0.97464   0.54552   0.35485
C          C       0.95448   0.47464   0.10485
C          C       0.04552   0.52536   0.10485
C          C       0.52536   0.95448   0.10485
C          C       0.47464   0.04552   0.10485
C          C       0.42050   0.97755   0.34431
C          C       0.57950   0.02245   0.34431
C          C       0.02245   0.42050   0.34431
C          C       0.97755   0.57950   0.34431
C          C       0.92050   0.47755   0.09431
C          C       0.07950   0.52245   0.09431
C          C       0.52245   0.92050   0.09431
C          C       0.47755   0.07950   0.09431
C          C       0.40336   0.00808   0.35063
C          C       0.59664   0.99192   0.35063
C          C       0.99192   0.40336   0.35063
C          C       0.00808   0.59664   0.35063
C          C       0.90336   0.50808   0.10064
C          C       0.09664   0.49192   0.10064
C          C       0.49192   0.90336   0.10064
C          C       0.50808   0.09664   0.10064
C          C       0.41841   0.03394   0.36972
C          C       0.58159   0.96606   0.36972
C          C       0.96606   0.41841   0.36972
C          C       0.03394   0.58159   0.36972
C          C       0.91841   0.53394   0.11972
C          C       0.08159   0.46606   0.11972
C          C       0.46606   0.91841   0.11972
C          C       0.53394   0.08159   0.11972
C          C       0.45095   0.02925   0.38179
C          C       0.54905   0.97075   0.38179
C          C       0.97075   0.45095   0.38179
C          C       0.02925   0.54905   0.38179
C          C       0.95095   0.52925   0.13179
C          C       0.04905   0.47075   0.13179
C          C       0.47075   0.95095   0.13179
C          C       0.52925   0.04905   0.13179
C          C       0.54730   0.09693   0.46464
C          C       0.45270   0.90307   0.46464
C          C       0.90307   0.54730   0.46464
C          C       0.09693   0.45270   0.46464
C          C       0.04730   0.59693   0.21464
C          C       0.95270   0.40307   0.21464
C          C       0.40307   0.04730   0.21464
C          C       0.59693   0.95270   0.21464
C          C       0.40175   0.94806   0.33009
C          C       0.59825   0.05194   0.33009
C          C       0.05194   0.40175   0.33009
C          C       0.94806   0.59825   0.33009
C          C       0.90175   0.44806   0.08008
C          C       0.09825   0.55194   0.08008
C          C       0.55194   0.90175   0.08008
C          C       0.44806   0.09825   0.08008
C          C       0.54145   0.11564   0.49496
C          C       0.45855   0.88436   0.49496
C          C       0.88436   0.54145   0.49496
C          C       0.11564   0.45855   0.49496
C          C       0.04145   0.61564   0.24497
C          C       0.95855   0.38436   0.24497
C          C       0.38436   0.04145   0.24497
C          C       0.61564   0.95855   0.24497
C          C       0.56626   0.13684   0.00843
C          C       0.43374   0.86316   0.00843
C          C       0.86316   0.56626   0.00843
C          C       0.13684   0.43374   0.00843
C          C       0.06626   0.63684   0.25843
C          C       0.93374   0.36316   0.25843
C          C       0.36316   0.06626   0.25843
C          C       0.63684   0.93374   0.25843
C          C       0.59737   0.14032   0.49167
C          C       0.40263   0.85968   0.49167
C          C       0.85968   0.59737   0.49167
C          C       0.14032   0.40263   0.49167
C          C       0.09737   0.64032   0.24167
C          C       0.90263   0.35968   0.24167
C          C       0.35968   0.09737   0.24167
C          C       0.64032   0.90263   0.24167
C          C       0.60368   0.12084   0.46190
C          C       0.39632   0.87916   0.46190
C          C       0.87916   0.60368   0.46190
C          C       0.12084   0.39632   0.46190
C          C       0.10368   0.62084   0.21189
C          C       0.89632   0.37916   0.21189
C          C       0.37916   0.10368   0.21189
C          C       0.62084   0.89632   0.21189
C          C       0.57896   0.09922   0.44865
C          C       0.42104   0.90078   0.44865
C          C       0.90078   0.57896   0.44865
C          C       0.09922   0.42104   0.44865
C          C       0.07896   0.59922   0.19866
C          C       0.92104   0.40078   0.19866
C          C       0.40078   0.07896   0.19866
C          C       0.59922   0.92104   0.19866
C          C       0.41784   0.92328   0.30678
C          C       0.58216   0.07672   0.30678
C          C       0.07672   0.41784   0.30678
C          C       0.92328   0.58216   0.30678
C          C       0.91784   0.42328   0.05678
C          C       0.08216   0.57672   0.05678
C          C       0.57672   0.91784   0.05678
C          C       0.42328   0.08216   0.05678
C          C       0.39954   0.89555   0.29494
C          C       0.60046   0.10445   0.29494
C          C       0.10445   0.39954   0.29494
C          C       0.89555   0.60046   0.29494
C          C       0.89954   0.39555   0.04493
C          C       0.10046   0.60445   0.04493
C          C       0.60445   0.89954   0.04493
C          C       0.39555   0.10046   0.04493
C          C       0.36598   0.89061   0.30504
C          C       0.63402   0.10939   0.30504
C          C       0.10939   0.36598   0.30504
C          C       0.89061   0.63402   0.30504
C          C       0.86598   0.39061   0.05504
C          C       0.13402   0.60939   0.05504
C          C       0.60939   0.86598   0.05504
C          C       0.39061   0.13402   0.05504
C          C       0.35077   0.91406   0.32733
C          C       0.64923   0.08594   0.32733
C          C       0.08594   0.35077   0.32733
C          C       0.91406   0.64923   0.32733
C          C       0.85077   0.41406   0.07733
C          C       0.14923   0.58594   0.07733
C          C       0.58594   0.85077   0.07733
C          C       0.41406   0.14923   0.07733
C          C       0.36825   0.94211   0.33964
C          C       0.63175   0.05789   0.33964
C          C       0.05789   0.36825   0.33964
C          C       0.94211   0.63175   0.33964
C          C       0.86825   0.44211   0.08964
C          C       0.13175   0.55789   0.08964
C          C       0.55789   0.86825   0.08964
C          C       0.44211   0.13175   0.08964
C          C       0.62204   0.16511   0.00525
C          C       0.37796   0.83489   0.00525
C          C       0.83489   0.62204   0.00525
C          C       0.16511   0.37796   0.00525
C          C       0.12204   0.66511   0.25525
C          C       0.87796   0.33489   0.25525
C          C       0.33489   0.12204   0.25525
C          C       0.66511   0.87796   0.25525
C          C       0.34723   0.86074   0.29217
C          C       0.65277   0.13926   0.29217
C          C       0.13926   0.34723   0.29217
C          C       0.86074   0.65277   0.29217
C          C       0.84723   0.36074   0.04217
C          C       0.15277   0.63926   0.04217
C          C       0.63926   0.84723   0.04217
C          C       0.36074   0.15277   0.04217
C          C       0.67393   0.19778   0.49779
C          C       0.32607   0.80222   0.49779
C          C       0.80222   0.67393   0.49779
C          C       0.19778   0.32607   0.49779
C          C       0.17393   0.69778   0.24779
C          C       0.82607   0.30222   0.24779
C          C       0.30222   0.17393   0.24779
C          C       0.69778   0.82607   0.24779
N          N       0.64905   0.17307   0.48801
N          N       0.35095   0.82693   0.48801
N          N       0.82693   0.64905   0.48801
N          N       0.17307   0.35095   0.48801
N          N       0.14905   0.67307   0.23802
N          N       0.85095   0.32693   0.23802
N          N       0.32693   0.14905   0.23802
N          N       0.67307   0.85095   0.23802
N          N       0.31617   0.85539   0.30125
N          N       0.68383   0.14461   0.30125
N          N       0.14461   0.31617   0.30125
N          N       0.85539   0.68383   0.30125
N          N       0.81617   0.35539   0.05125
N          N       0.18383   0.64461   0.05125
N          N       0.64461   0.81617   0.05125
N          N       0.35539   0.18383   0.05125
C          C       0.67560   0.21228   0.03116
C          C       0.32440   0.78772   0.03116
C          C       0.78772   0.67560   0.03116
C          C       0.21228   0.32440   0.03116
C          C       0.17560   0.71228   0.28116
C          C       0.82440   0.28772   0.28116
C          C       0.28772   0.17560   0.28116
C          C       0.71228   0.82440   0.28116
C          C       0.76154   0.32773   0.05366
C          C       0.23846   0.67227   0.05366
C          C       0.67227   0.76154   0.05366
C          C       0.32773   0.23846   0.05366
C          C       0.26154   0.82773   0.30366
C          C       0.73846   0.17227   0.30366
C          C       0.17227   0.26154   0.30366
C          C       0.82773   0.73846   0.30366
C          C       0.79457   0.32789   0.04122
C          C       0.20543   0.67211   0.04122
C          C       0.67211   0.79457   0.04122
C          C       0.32789   0.20543   0.04122
C          C       0.29457   0.82789   0.29122
C          C       0.70543   0.17211   0.29122
C          C       0.17211   0.29457   0.29122
C          C       0.82789   0.70543   0.29122
C          C       0.80497   0.30136   0.01970
C          C       0.19503   0.69864   0.01970
C          C       0.69864   0.80497   0.01970
C          C       0.30136   0.19503   0.01970
C          C       0.30497   0.80136   0.26970
C          C       0.69503   0.19864   0.26970
C          C       0.19864   0.30497   0.26970
C          C       0.80136   0.69503   0.26970
C          C       0.69753   0.20773   0.47300
C          C       0.30247   0.79227   0.47300
C          C       0.79227   0.69753   0.47300
C          C       0.20773   0.30247   0.47300
C          C       0.19753   0.70773   0.22300
C          C       0.80247   0.29227   0.22300
C          C       0.29227   0.19753   0.22300
C          C       0.70773   0.80247   0.22300
C          C       0.19967   0.73681   0.28935
C          C       0.80033   0.26319   0.28935
C          C       0.26319   0.19967   0.28935
C          C       0.73681   0.80033   0.28935
C          C       0.69967   0.23681   0.03934
C          C       0.30033   0.76319   0.03934
C          C       0.76319   0.69967   0.03934
C          C       0.23681   0.30033   0.03934
C          C       0.22333   0.74806   0.26479
C          C       0.77667   0.25194   0.26479
C          C       0.25194   0.22333   0.26479
C          C       0.74806   0.77667   0.26479
C          C       0.72333   0.24806   0.01479
C          C       0.27667   0.75194   0.01479
C          C       0.75194   0.72333   0.01479
C          C       0.24806   0.27667   0.01479
C          C       0.22278   0.73359   0.23157
C          C       0.77722   0.26641   0.23157
C          C       0.26641   0.22278   0.23157
C          C       0.73359   0.77722   0.23157
C          C       0.72278   0.23359   0.48157
C          C       0.27722   0.76641   0.48157
C          C       0.76641   0.72278   0.48157
C          C       0.23359   0.27722   0.48157
C          C       0.23885   0.80209   0.29518
C          C       0.76115   0.19791   0.29518
C          C       0.19791   0.23885   0.29518
C          C       0.80209   0.76115   0.29518
C          C       0.73885   0.30209   0.04518
C          C       0.26115   0.69791   0.04518
C          C       0.69791   0.73885   0.04518
C          C       0.30209   0.26115   0.04518
C          C       0.24811   0.77505   0.27373
C          C       0.75189   0.22495   0.27373
C          C       0.22495   0.24811   0.27373
C          C       0.77505   0.75189   0.27373
C          C       0.74811   0.27505   0.02373
C          C       0.25189   0.72495   0.02373
C          C       0.72495   0.74811   0.02373
C          C       0.27505   0.25189   0.02373
C          C       0.28104   0.77429   0.26076
C          C       0.71896   0.22571   0.26076
C          C       0.22571   0.28104   0.26076
C          C       0.77429   0.71896   0.26076
C          C       0.78104   0.27429   0.01076
C          C       0.21896   0.72571   0.01076
C          C       0.72571   0.78104   0.01076
C          C       0.27429   0.21896   0.01076
H          H       0.44095   0.09351   0.41466
H          H       0.55905   0.90649   0.41466
H          H       0.90649   0.44095   0.41466
H          H       0.09351   0.55905   0.41466
H          H       0.94095   0.59351   0.16466
H          H       0.05905   0.40649   0.16466
H          H       0.40649   0.94095   0.16466
H          H       0.59351   0.05905   0.16466
H          H       0.48465   0.12003   0.45090
H          H       0.51535   0.87997   0.45090
H          H       0.87997   0.48465   0.45090
H          H       0.12003   0.51535   0.45090
H          H       0.98465   0.62003   0.20090
H          H       0.01535   0.37997   0.20090
H          H       0.37997   0.98465   0.20090
H          H       0.62003   0.01535   0.20090
H          H       0.54751   0.03221   0.43867
H          H       0.45249   0.96779   0.43867
H          H       0.96779   0.54751   0.43867
H          H       0.03221   0.45249   0.43867
H          H       0.04751   0.53221   0.18867
H          H       0.95249   0.46779   0.18867
H          H       0.46779   0.04751   0.18867
H          H       0.53221   0.95249   0.18867
H          H       0.46795   0.95133   0.35132
H          H       0.53205   0.04867   0.35132
H          H       0.04867   0.46795   0.35132
H          H       0.95133   0.53205   0.35132
H          H       0.96795   0.45133   0.10132
H          H       0.03205   0.54867   0.10132
H          H       0.54867   0.96795   0.10132
H          H       0.45133   0.03205   0.10132
H          H       0.37774   0.01140   0.34203
H          H       0.62226   0.98860   0.34203
H          H       0.98860   0.37774   0.34203
H          H       0.01140   0.62226   0.34203
H          H       0.87774   0.51140   0.09203
H          H       0.12226   0.48860   0.09203
H          H       0.48860   0.87774   0.09203
H          H       0.51140   0.12226   0.09203
H          H       0.40436   0.05624   0.37635
H          H       0.59564   0.94376   0.37635
H          H       0.94376   0.40436   0.37635
H          H       0.05624   0.59564   0.37635
H          H       0.90436   0.55624   0.12635
H          H       0.09564   0.44376   0.12635
H          H       0.44376   0.90436   0.12635
H          H       0.55624   0.09564   0.12635
H          H       0.51737   0.11432   0.00790
H          H       0.48263   0.88568   0.00790
H          H       0.88568   0.51737   0.00790
H          H       0.11432   0.48263   0.00790
H          H       0.01737   0.61432   0.25790
H          H       0.98263   0.38568   0.25790
H          H       0.38568   0.01737   0.25790
H          H       0.61432   0.98263   0.25790
H          H       0.56072   0.15132   0.03151
H          H       0.43928   0.84868   0.03151
H          H       0.84868   0.56072   0.03151
H          H       0.15132   0.43928   0.03151
H          H       0.06072   0.65132   0.28151
H          H       0.93928   0.34868   0.28151
H          H       0.34868   0.06072   0.28151
H          H       0.65132   0.93928   0.28151
H          H       0.62744   0.12278   0.44845
H          H       0.37256   0.87722   0.44845
H          H       0.87722   0.62744   0.44845
H          H       0.12278   0.37256   0.44845
H          H       0.12744   0.62278   0.19846
H          H       0.87256   0.37722   0.19846
H          H       0.37722   0.12744   0.19846
H          H       0.62278   0.87256   0.19846
H          H       0.58405   0.08540   0.42503
H          H       0.41595   0.91460   0.42503
H          H       0.91460   0.58405   0.42503
H          H       0.08540   0.41595   0.42503
H          H       0.08405   0.58540   0.17503
H          H       0.91595   0.41460   0.17503
H          H       0.41460   0.08405   0.17503
H          H       0.58540   0.91595   0.17503
H          H       0.44353   0.92665   0.29842
H          H       0.55647   0.07335   0.29842
H          H       0.07335   0.44353   0.29842
H          H       0.92665   0.55647   0.29842
H          H       0.94353   0.42665   0.04842
H          H       0.05647   0.57335   0.04842
H          H       0.57335   0.94353   0.04842
H          H       0.42665   0.05647   0.04842
H          H       0.41165   0.87778   0.27777
H          H       0.58835   0.12222   0.27777
H          H       0.12222   0.41165   0.27777
H          H       0.87778   0.58835   0.27777
H          H       0.91165   0.37778   0.02777
H          H       0.08835   0.62222   0.02777
H          H       0.62222   0.91165   0.02777
H          H       0.37778   0.08835   0.02777
H          H       0.32505   0.91061   0.33560
H          H       0.67495   0.08939   0.33560
H          H       0.08939   0.32505   0.33560
H          H       0.91061   0.67495   0.33560
H          H       0.82505   0.41061   0.08560
H          H       0.17495   0.58939   0.08560
H          H       0.58939   0.82505   0.08560
H          H       0.41061   0.17495   0.08560
H          H       0.35550   0.95885   0.35737
H          H       0.64450   0.04115   0.35737
H          H       0.04115   0.35550   0.35737
H          H       0.95885   0.64450   0.35737
H          H       0.85550   0.45885   0.10737
H          H       0.14450   0.54115   0.10737
H          H       0.54115   0.85550   0.10737
H          H       0.45885   0.14450   0.10737
H          H       0.61587   0.17792   0.02912
H          H       0.38413   0.82208   0.02912
H          H       0.82208   0.61587   0.02912
H          H       0.17792   0.38413   0.02912
H          H       0.11587   0.67792   0.27912
H          H       0.88413   0.32208   0.27912
H          H       0.32208   0.11587   0.27912
H          H       0.67792   0.88413   0.27912
H          H       0.36007   0.84358   0.27502
H          H       0.63993   0.15642   0.27502
H          H       0.15642   0.36007   0.27502
H          H       0.84358   0.63993   0.27502
H          H       0.86007   0.34358   0.02502
H          H       0.13993   0.65642   0.02502
H          H       0.65642   0.86007   0.02502
H          H       0.34358   0.13993   0.02502
H          H       0.65858   0.20464   0.05147
H          H       0.34142   0.79536   0.05147
H          H       0.79536   0.65858   0.05147
H          H       0.20464   0.34142   0.05147
H          H       0.15858   0.70464   0.30147
H          H       0.84142   0.29536   0.30147
H          H       0.29536   0.15858   0.30147
H          H       0.70464   0.84142   0.30147
H          H       0.75310   0.34802   0.07017
H          H       0.24690   0.65198   0.07017
H          H       0.65198   0.75310   0.07017
H          H       0.34802   0.24690   0.07017
H          H       0.25310   0.84802   0.32017
H          H       0.74690   0.15198   0.32017
H          H       0.15198   0.25310   0.32017
H          H       0.84802   0.74690   0.32017
H          H       0.83011   0.29994   0.00943
H          H       0.16989   0.70006   0.00943
H          H       0.70006   0.83011   0.00943
H          H       0.29994   0.16989   0.00943
H          H       0.33011   0.79994   0.25943
H          H       0.66989   0.20006   0.25943
H          H       0.20006   0.33011   0.25943
H          H       0.79994   0.66989   0.25943
H          H       0.69707   0.19701   0.44719
H          H       0.30293   0.80299   0.44719
H          H       0.80299   0.69707   0.44719
H          H       0.19701   0.30293   0.44719
H          H       0.19707   0.69701   0.19719
H          H       0.80293   0.30299   0.19719
H          H       0.30299   0.19707   0.19719
H          H       0.69701   0.80293   0.19719
H          H       0.19991   0.74683   0.31546
H          H       0.80009   0.25317   0.31546
H          H       0.25317   0.19991   0.31546
H          H       0.74683   0.80009   0.31546
H          H       0.69991   0.24683   0.06546
H          H       0.30009   0.75317   0.06546
H          H       0.75317   0.69991   0.06546
H          H       0.24683   0.30009   0.06546
H          H       0.24004   0.74171   0.21160
H          H       0.75996   0.25829   0.21160
H          H       0.25829   0.24004   0.21160
H          H       0.74171   0.75996   0.21160
H          H       0.74004   0.24171   0.46160
H          H       0.25996   0.75829   0.46160
H          H       0.75829   0.74004   0.46160
H          H       0.24171   0.25996   0.46160
H          H       0.21355   0.80383   0.30517
H          H       0.78645   0.19617   0.30517
H          H       0.19617   0.21355   0.30517
H          H       0.80383   0.78645   0.30517
H          H       0.71355   0.30383   0.05517
H          H       0.28645   0.69617   0.05517
H          H       0.69617   0.71355   0.05517
H          H       0.30383   0.28645   0.05517
H          H       0.28954   0.75377   0.24461
H          H       0.71046   0.24623   0.24461
H          H       0.24623   0.28954   0.24461
H          H       0.75377   0.71046   0.24461
H          H       0.78954   0.25377   0.49461
H          H       0.21046   0.74623   0.49461
H          H       0.74623   0.78954   0.49461
H          H       0.25377   0.21046   0.49461
C          C       0.00000   0.50000   0.14417
C          C       0.50000   0.00000   0.14417
C          C       0.50000   0.00000   0.39417
C          C       0.00000   0.50000   0.39417
C          C       0.49838   0.03034   0.91466
C          C       0.50162   0.96966   0.91466
C          C       0.96966   0.49838   0.91466
C          C       0.03034   0.50162   0.91466
C          C       0.99838   0.53034   0.66466
C          C       0.00162   0.46966   0.66466
C          C       0.46966   0.99838   0.66466
C          C       0.53034   0.00162   0.66466
C          C       0.46947   0.00100   0.87384
C          C       0.53053   0.99900   0.87384
C          C       0.99900   0.46947   0.87384
C          C       0.00100   0.53053   0.87384
C          C       0.96947   0.50100   0.62384
C          C       0.03053   0.49900   0.62384
C          C       0.49900   0.96947   0.62384
C          C       0.50100   0.03053   0.62384
C          C       0.46964   0.04821   0.90721
C          C       0.53036   0.95179   0.90721
C          C       0.95179   0.46964   0.90721
C          C       0.04821   0.53036   0.90721
C          C       0.96964   0.54821   0.65721
C          C       0.03036   0.45179   0.65721
C          C       0.45179   0.96964   0.65721
C          C       0.54821   0.03036   0.65721
C          C       0.46364   0.07993   0.92092
C          C       0.53636   0.92007   0.92092
C          C       0.92007   0.46364   0.92092
C          C       0.07993   0.53636   0.92092
C          C       0.96364   0.57993   0.67092
C          C       0.03636   0.42007   0.67092
C          C       0.42007   0.96364   0.67092
C          C       0.57993   0.03636   0.67092
C          C       0.48859   0.09476   0.94148
C          C       0.51141   0.90524   0.94148
C          C       0.90524   0.48859   0.94148
C          C       0.09476   0.51141   0.94148
C          C       0.98859   0.59476   0.69148
C          C       0.01141   0.40524   0.69148
C          C       0.40524   0.98859   0.69148
C          C       0.59476   0.01141   0.69148
C          C       0.51939   0.07816   0.94770
C          C       0.48061   0.92184   0.94770
C          C       0.92184   0.51939   0.94770
C          C       0.07816   0.48061   0.94770
C          C       0.01939   0.57816   0.69771
C          C       0.98061   0.42184   0.69771
C          C       0.42184   0.01939   0.69771
C          C       0.57816   0.98061   0.69771
C          C       0.52398   0.04522   0.93477
C          C       0.47602   0.95478   0.93477
C          C       0.95478   0.52398   0.93477
C          C       0.04522   0.47602   0.93477
C          C       0.02398   0.54522   0.68477
C          C       0.97602   0.45478   0.68477
C          C       0.45478   0.02398   0.68477
C          C       0.54522   0.97602   0.68477
C          C       0.45448   0.97464   0.85485
C          C       0.54552   0.02536   0.85485
C          C       0.02536   0.45448   0.85485
C          C       0.97464   0.54552   0.85485
C          C       0.95448   0.47464   0.60485
C          C       0.04552   0.52536   0.60485
C          C       0.52536   0.95448   0.60485
C          C       0.47464   0.04552   0.60485
C          C       0.42050   0.97755   0.84431
C          C       0.57950   0.02245   0.84431
C          C       0.02245   0.42050   0.84431
C          C       0.97755   0.57950   0.84431
C          C       0.92050   0.47755   0.59431
C          C       0.07950   0.52245   0.59431
C          C       0.52245   0.92050   0.59431
C          C       0.47755   0.07950   0.59431
C          C       0.40336   0.00808   0.85064
C          C       0.59664   0.99192   0.85064
C          C       0.99192   0.40336   0.85064
C          C       0.00808   0.59664   0.85064
C          C       0.90336   0.50808   0.60064
C          C       0.09664   0.49192   0.60064
C          C       0.49192   0.90336   0.60064
C          C       0.50808   0.09664   0.60064
C          C       0.41841   0.03394   0.86972
C          C       0.58159   0.96606   0.86972
C          C       0.96606   0.41841   0.86972
C          C       0.03394   0.58159   0.86972
C          C       0.91841   0.53394   0.61972
C          C       0.08159   0.46606   0.61972
C          C       0.46606   0.91841   0.61972
C          C       0.53394   0.08159   0.61972
C          C       0.45095   0.02925   0.88179
C          C       0.54905   0.97075   0.88179
C          C       0.97075   0.45095   0.88179
C          C       0.02925   0.54905   0.88179
C          C       0.95095   0.52925   0.63179
C          C       0.04905   0.47075   0.63179
C          C       0.47075   0.95095   0.63179
C          C       0.52925   0.04905   0.63179
C          C       0.54730   0.09693   0.96464
C          C       0.45270   0.90307   0.96464
C          C       0.90307   0.54730   0.96464
C          C       0.09693   0.45270   0.96464
C          C       0.04730   0.59693   0.71464
C          C       0.95270   0.40307   0.71464
C          C       0.40307   0.04730   0.71464
C          C       0.59693   0.95270   0.71464
C          C       0.40175   0.94806   0.83009
C          C       0.59825   0.05194   0.83009
C          C       0.05194   0.40175   0.83009
C          C       0.94806   0.59825   0.83009
C          C       0.90175   0.44806   0.58008
C          C       0.09825   0.55194   0.58008
C          C       0.55194   0.90175   0.58008
C          C       0.44806   0.09825   0.58008
C          C       0.54145   0.11564   0.99496
C          C       0.45855   0.88436   0.99496
C          C       0.88436   0.54145   0.99496
C          C       0.11564   0.45855   0.99496
C          C       0.04145   0.61564   0.74496
C          C       0.95855   0.38436   0.74496
C          C       0.38436   0.04145   0.74496
C          C       0.61564   0.95855   0.74496
C          C       0.56626   0.13684   0.50843
C          C       0.43374   0.86316   0.50843
C          C       0.86316   0.56626   0.50843
C          C       0.13684   0.43374   0.50843
C          C       0.06626   0.63684   0.75843
C          C       0.93374   0.36316   0.75843
C          C       0.36316   0.06626   0.75843
C          C       0.63684   0.93374   0.75843
C          C       0.59737   0.14032   0.99167
C          C       0.40263   0.85968   0.99167
C          C       0.85968   0.59737   0.99167
C          C       0.14032   0.40263   0.99167
C          C       0.09737   0.64032   0.74167
C          C       0.90263   0.35968   0.74167
C          C       0.35968   0.09737   0.74167
C          C       0.64032   0.90263   0.74167
C          C       0.60368   0.12084   0.96190
C          C       0.39632   0.87916   0.96190
C          C       0.87916   0.60368   0.96190
C          C       0.12084   0.39632   0.96190
C          C       0.10368   0.62084   0.71189
C          C       0.89632   0.37916   0.71189
C          C       0.37916   0.10368   0.71189
C          C       0.62084   0.89632   0.71189
C          C       0.57896   0.09922   0.94866
C          C       0.42104   0.90078   0.94866
C          C       0.90078   0.57896   0.94866
C          C       0.09922   0.42104   0.94866
C          C       0.07896   0.59922   0.69866
C          C       0.92104   0.40078   0.69866
C          C       0.40078   0.07896   0.69866
C          C       0.59922   0.92104   0.69866
C          C       0.41784   0.92328   0.80678
C          C       0.58216   0.07672   0.80678
C          C       0.07672   0.41784   0.80678
C          C       0.92328   0.58216   0.80678
C          C       0.91784   0.42328   0.55678
C          C       0.08216   0.57672   0.55678
C          C       0.57672   0.91784   0.55678
C          C       0.42328   0.08216   0.55678
C          C       0.39954   0.89555   0.79493
C          C       0.60046   0.10445   0.79493
C          C       0.10445   0.39954   0.79493
C          C       0.89555   0.60046   0.79493
C          C       0.89954   0.39555   0.54493
C          C       0.10046   0.60445   0.54493
C          C       0.60445   0.89954   0.54493
C          C       0.39555   0.10046   0.54493
C          C       0.36598   0.89061   0.80504
C          C       0.63402   0.10939   0.80504
C          C       0.10939   0.36598   0.80504
C          C       0.89061   0.63402   0.80504
C          C       0.86598   0.39061   0.55504
C          C       0.13402   0.60939   0.55504
C          C       0.60939   0.86598   0.55504
C          C       0.39061   0.13402   0.55504
C          C       0.35077   0.91406   0.82734
C          C       0.64923   0.08594   0.82734
C          C       0.08594   0.35077   0.82734
C          C       0.91406   0.64923   0.82734
C          C       0.85077   0.41406   0.57733
C          C       0.14923   0.58594   0.57733
C          C       0.58594   0.85077   0.57733
C          C       0.41406   0.14923   0.57733
C          C       0.36825   0.94211   0.83964
C          C       0.63175   0.05789   0.83964
C          C       0.05789   0.36825   0.83964
C          C       0.94211   0.63175   0.83964
C          C       0.86825   0.44211   0.58964
C          C       0.13175   0.55789   0.58964
C          C       0.55789   0.86825   0.58964
C          C       0.44211   0.13175   0.58964
C          C       0.62204   0.16511   0.50525
C          C       0.37796   0.83489   0.50525
C          C       0.83489   0.62204   0.50525
C          C       0.16511   0.37796   0.50525
C          C       0.12204   0.66511   0.75525
C          C       0.87796   0.33489   0.75525
C          C       0.33489   0.12204   0.75525
C          C       0.66511   0.87796   0.75525
C          C       0.34723   0.86074   0.79217
C          C       0.65277   0.13926   0.79217
C          C       0.13926   0.34723   0.79217
C          C       0.86074   0.65277   0.79217
C          C       0.84723   0.36074   0.54217
C          C       0.15277   0.63926   0.54217
C          C       0.63926   0.84723   0.54217
C          C       0.36074   0.15277   0.54217
C          C       0.67393   0.19778   0.99779
C          C       0.32607   0.80222   0.99779
C          C       0.80222   0.67393   0.99779
C          C       0.19778   0.32607   0.99779
C          C       0.17393   0.69778   0.74779
C          C       0.82607   0.30222   0.74779
C          C       0.30222   0.17393   0.74779
C          C       0.69778   0.82607   0.74779
N          N       0.64905   0.17307   0.98801
N          N       0.35095   0.82693   0.98801
N          N       0.82693   0.64905   0.98801
N          N       0.17307   0.35095   0.98801
N          N       0.14905   0.67307   0.73801
N          N       0.85095   0.32693   0.73801
N          N       0.32693   0.14905   0.73801
N          N       0.67307   0.85095   0.73801
N          N       0.31617   0.85539   0.80125
N          N       0.68383   0.14461   0.80125
N          N       0.14461   0.31617   0.80125
N          N       0.85539   0.68383   0.80125
N          N       0.81617   0.35539   0.55125
N          N       0.18383   0.64461   0.55125
N          N       0.64461   0.81617   0.55125
N          N       0.35539   0.18383   0.55125
C          C       0.67560   0.21228   0.53116
C          C       0.32440   0.78772   0.53116
C          C       0.78772   0.67560   0.53116
C          C       0.21228   0.32440   0.53116
C          C       0.17560   0.71228   0.78115
C          C       0.82440   0.28772   0.78115
C          C       0.28772   0.17560   0.78115
C          C       0.71228   0.82440   0.78115
C          C       0.76154   0.32773   0.55366
C          C       0.23846   0.67227   0.55366
C          C       0.67227   0.76154   0.55366
C          C       0.32773   0.23846   0.55366
C          C       0.26154   0.82773   0.80366
C          C       0.73846   0.17227   0.80366
C          C       0.17227   0.26154   0.80366
C          C       0.82773   0.73846   0.80366
C          C       0.79457   0.32789   0.54122
C          C       0.20543   0.67211   0.54122
C          C       0.67211   0.79457   0.54122
C          C       0.32789   0.20543   0.54122
C          C       0.29457   0.82789   0.79122
C          C       0.70543   0.17211   0.79122
C          C       0.17211   0.29457   0.79122
C          C       0.82789   0.70543   0.79122
C          C       0.80497   0.30136   0.51970
C          C       0.19503   0.69864   0.51970
C          C       0.69864   0.80497   0.51970
C          C       0.30136   0.19503   0.51970
C          C       0.30497   0.80136   0.76970
C          C       0.69503   0.19864   0.76970
C          C       0.19864   0.30497   0.76970
C          C       0.80136   0.69503   0.76970
C          C       0.69753   0.20773   0.97300
C          C       0.30247   0.79227   0.97300
C          C       0.79227   0.69753   0.97300
C          C       0.20773   0.30247   0.97300
C          C       0.19753   0.70773   0.72300
C          C       0.80247   0.29227   0.72300
C          C       0.29227   0.19753   0.72300
C          C       0.70773   0.80247   0.72300
C          C       0.19967   0.73681   0.78935
C          C       0.80033   0.26319   0.78935
C          C       0.26319   0.19967   0.78935
C          C       0.73681   0.80033   0.78935
C          C       0.69967   0.23681   0.53934
C          C       0.30033   0.76319   0.53934
C          C       0.76319   0.69967   0.53934
C          C       0.23681   0.30033   0.53934
C          C       0.22333   0.74806   0.76479
C          C       0.77667   0.25194   0.76479
C          C       0.25194   0.22333   0.76479
C          C       0.74806   0.77667   0.76479
C          C       0.72333   0.24806   0.51479
C          C       0.27667   0.75194   0.51479
C          C       0.75194   0.72333   0.51479
C          C       0.24806   0.27667   0.51479
C          C       0.22278   0.73359   0.73157
C          C       0.77722   0.26641   0.73157
C          C       0.26641   0.22278   0.73157
C          C       0.73359   0.77722   0.73157
C          C       0.72278   0.23359   0.98157
C          C       0.27722   0.76641   0.98157
C          C       0.76641   0.72278   0.98157
C          C       0.23359   0.27722   0.98157
C          C       0.23885   0.80209   0.79518
C          C       0.76115   0.19791   0.79518
C          C       0.19791   0.23885   0.79518
C          C       0.80209   0.76115   0.79518
C          C       0.73885   0.30209   0.54518
C          C       0.26115   0.69791   0.54518
C          C       0.69791   0.73885   0.54518
C          C       0.30209   0.26115   0.54518
C          C       0.24811   0.77505   0.77373
C          C       0.75189   0.22495   0.77373
C          C       0.22495   0.24811   0.77373
C          C       0.77505   0.75189   0.77373
C          C       0.74811   0.27505   0.52373
C          C       0.25189   0.72495   0.52373
C          C       0.72495   0.74811   0.52373
C          C       0.27505   0.25189   0.52373
C          C       0.28104   0.77429   0.76076
C          C       0.71896   0.22571   0.76076
C          C       0.22571   0.28104   0.76076
C          C       0.77429   0.71896   0.76076
C          C       0.78104   0.27429   0.51076
C          C       0.21896   0.72571   0.51076
C          C       0.72571   0.78104   0.51076
C          C       0.27429   0.21896   0.51076
H          H       0.44095   0.09351   0.91466
H          H       0.55905   0.90649   0.91466
H          H       0.90649   0.44095   0.91466
H          H       0.09351   0.55905   0.91466
H          H       0.94095   0.59351   0.66466
H          H       0.05905   0.40649   0.66466
H          H       0.40649   0.94095   0.66466
H          H       0.59351   0.05905   0.66466
H          H       0.48465   0.12003   0.95090
H          H       0.51535   0.87997   0.95090
H          H       0.87997   0.48465   0.95090
H          H       0.12003   0.51535   0.95090
H          H       0.98465   0.62003   0.70090
H          H       0.01535   0.37997   0.70090
H          H       0.37997   0.98465   0.70090
H          H       0.62003   0.01535   0.70090
H          H       0.54751   0.03221   0.93867
H          H       0.45249   0.96779   0.93867
H          H       0.96779   0.54751   0.93867
H          H       0.03221   0.45249   0.93867
H          H       0.04751   0.53221   0.68867
H          H       0.95249   0.46779   0.68867
H          H       0.46779   0.04751   0.68867
H          H       0.53221   0.95249   0.68867
H          H       0.46795   0.95133   0.85132
H          H       0.53205   0.04867   0.85132
H          H       0.04867   0.46795   0.85132
H          H       0.95133   0.53205   0.85132
H          H       0.96795   0.45133   0.60132
H          H       0.03205   0.54867   0.60132
H          H       0.54867   0.96795   0.60132
H          H       0.45133   0.03205   0.60132
H          H       0.37774   0.01140   0.84203
H          H       0.62226   0.98860   0.84203
H          H       0.98860   0.37774   0.84203
H          H       0.01140   0.62226   0.84203
H          H       0.87774   0.51140   0.59203
H          H       0.12226   0.48860   0.59203
H          H       0.48860   0.87774   0.59203
H          H       0.51140   0.12226   0.59203
H          H       0.40436   0.05624   0.87636
H          H       0.59564   0.94376   0.87636
H          H       0.94376   0.40436   0.87636
H          H       0.05624   0.59564   0.87636
H          H       0.90436   0.55624   0.62635
H          H       0.09564   0.44376   0.62635
H          H       0.44376   0.90436   0.62635
H          H       0.55624   0.09564   0.62635
H          H       0.51737   0.11432   0.50790
H          H       0.48263   0.88568   0.50790
H          H       0.88568   0.51737   0.50790
H          H       0.11432   0.48263   0.50790
H          H       0.01737   0.61432   0.75790
H          H       0.98263   0.38568   0.75790
H          H       0.38568   0.01737   0.75790
H          H       0.61432   0.98263   0.75790
H          H       0.56072   0.15132   0.53151
H          H       0.43928   0.84868   0.53151
H          H       0.84868   0.56072   0.53151
H          H       0.15132   0.43928   0.53151
H          H       0.06072   0.65132   0.78151
H          H       0.93928   0.34868   0.78151
H          H       0.34868   0.06072   0.78151
H          H       0.65132   0.93928   0.78151
H          H       0.62744   0.12278   0.94846
H          H       0.37256   0.87722   0.94846
H          H       0.87722   0.62744   0.94846
H          H       0.12278   0.37256   0.94846
H          H       0.12744   0.62278   0.69846
H          H       0.87256   0.37722   0.69846
H          H       0.37722   0.12744   0.69846
H          H       0.62278   0.87256   0.69846
H          H       0.58405   0.08540   0.92503
H          H       0.41595   0.91460   0.92503
H          H       0.91460   0.58405   0.92503
H          H       0.08540   0.41595   0.92503
H          H       0.08405   0.58540   0.67503
H          H       0.91595   0.41460   0.67503
H          H       0.41460   0.08405   0.67503
H          H       0.58540   0.91595   0.67503
H          H       0.44353   0.92665   0.79842
H          H       0.55647   0.07335   0.79842
H          H       0.07335   0.44353   0.79842
H          H       0.92665   0.55647   0.79842
H          H       0.94353   0.42665   0.54842
H          H       0.05647   0.57335   0.54842
H          H       0.57335   0.94353   0.54842
H          H       0.42665   0.05647   0.54842
H          H       0.41165   0.87778   0.77777
H          H       0.58835   0.12222   0.77777
H          H       0.12222   0.41165   0.77777
H          H       0.87778   0.58835   0.77777
H          H       0.91165   0.37778   0.52777
H          H       0.08835   0.62222   0.52777
H          H       0.62222   0.91165   0.52777
H          H       0.37778   0.08835   0.52777
H          H       0.32505   0.91061   0.83561
H          H       0.67495   0.08939   0.83561
H          H       0.08939   0.32505   0.83561
H          H       0.91061   0.67495   0.83561
H          H       0.82505   0.41061   0.58560
H          H       0.17495   0.58939   0.58560
H          H       0.58939   0.82505   0.58560
H          H       0.41061   0.17495   0.58560
H          H       0.35550   0.95885   0.85737
H          H       0.64450   0.04115   0.85737
H          H       0.04115   0.35550   0.85737
H          H       0.95885   0.64450   0.85737
H          H       0.85550   0.45885   0.60737
H          H       0.14450   0.54115   0.60737
H          H       0.54115   0.85550   0.60737
H          H       0.45885   0.14450   0.60737
H          H       0.61587   0.17792   0.52912
H          H       0.38413   0.82208   0.52912
H          H       0.82208   0.61587   0.52912
H          H       0.17792   0.38413   0.52912
H          H       0.11587   0.67792   0.77912
H          H       0.88413   0.32208   0.77912
H          H       0.32208   0.11587   0.77912
H          H       0.67792   0.88413   0.77912
H          H       0.36007   0.84358   0.77502
H          H       0.63993   0.15642   0.77502
H          H       0.15642   0.36007   0.77502
H          H       0.84358   0.63993   0.77502
H          H       0.86007   0.34358   0.52502
H          H       0.13993   0.65642   0.52502
H          H       0.65642   0.86007   0.52502
H          H       0.34358   0.13993   0.52502
H          H       0.65858   0.20464   0.55147
H          H       0.34142   0.79536   0.55147
H          H       0.79536   0.65858   0.55147
H          H       0.20464   0.34142   0.55147
H          H       0.15858   0.70464   0.80147
H          H       0.84142   0.29536   0.80147
H          H       0.29536   0.15858   0.80147
H          H       0.70464   0.84142   0.80147
H          H       0.75310   0.34802   0.57017
H          H       0.24690   0.65198   0.57017
H          H       0.65198   0.75310   0.57017
H          H       0.34802   0.24690   0.57017
H          H       0.25310   0.84802   0.82017
H          H       0.74690   0.15198   0.82017
H          H       0.15198   0.25310   0.82017
H          H       0.84802   0.74690   0.82017
H          H       0.83011   0.29994   0.50943
H          H       0.16989   0.70006   0.50943
H          H       0.70006   0.83011   0.50943
H          H       0.29994   0.16989   0.50943
H          H       0.33011   0.79994   0.75943
H          H       0.66989   0.20006   0.75943
H          H       0.20006   0.33011   0.75943
H          H       0.79994   0.66989   0.75943
H          H       0.69707   0.19701   0.94719
H          H       0.30293   0.80299   0.94719
H          H       0.80299   0.69707   0.94719
H          H       0.19701   0.30293   0.94719
H          H       0.19707   0.69701   0.69719
H          H       0.80293   0.30299   0.69719
H          H       0.30299   0.19707   0.69719
H          H       0.69701   0.80293   0.69719
H          H       0.19991   0.74683   0.81546
H          H       0.80009   0.25317   0.81546
H          H       0.25317   0.19991   0.81546
H          H       0.74683   0.80009   0.81546
H          H       0.69991   0.24683   0.56546
H          H       0.30009   0.75317   0.56546
H          H       0.75317   0.69991   0.56546
H          H       0.24683   0.30009   0.56546
H          H       0.24004   0.74171   0.71160
H          H       0.75996   0.25829   0.71160
H          H       0.25829   0.24004   0.71160
H          H       0.74171   0.75996   0.71160
H          H       0.74004   0.24171   0.96160
H          H       0.25996   0.75829   0.96160
H          H       0.75829   0.74004   0.96160
H          H       0.24171   0.25996   0.96160
H          H       0.21355   0.80383   0.80517
H          H       0.78645   0.19617   0.80517
H          H       0.19617   0.21355   0.80517
H          H       0.80383   0.78645   0.80517
H          H       0.71355   0.30383   0.55517
H          H       0.28645   0.69617   0.55517
H          H       0.69617   0.71355   0.55517
H          H       0.30383   0.28645   0.55517
H          H       0.28954   0.75377   0.74462
H          H       0.71046   0.24623   0.74462
H          H       0.24623   0.28954   0.74462
H          H       0.75377   0.71046   0.74462
H          H       0.78954   0.25377   0.99461
H          H       0.21046   0.74623   0.99461
H          H       0.74623   0.78954   0.99461
H          H       0.25377   0.21046   0.99461
C          C       0.00000   0.50000   0.64417
C          C       0.50000   0.00000   0.64417
C          C       0.50000   0.00000   0.89417
C          C       0.00000   0.50000   0.89417
