data_crystal

_cell_length_a    34.40000
_cell_length_b    34.40000
_cell_length_c    40.00000
_cell_angle_alpha 90.00000
_cell_angle_beta  90.00000
_cell_angle_gamma 90.00000

_space_group_name_Hall 'P 1'
_space_group_name_H-M_alt 'P 1'

loop_
_symmetry_equiv_pos_as_xyz
 'x,y,z'

loop_
_atom_site_label
_atom_site_type_symbol
_atom_site_fract_x
_atom_site_fract_y
_atom_site_fract_z
C          C       0.49787   0.03783   0.40156
C          C       0.50213   0.96217   0.40156
C          C       0.96217   0.49787   0.40156
C          C       0.03783   0.50213   0.40156
C          C       0.99787   0.53783   0.15156
C          C       0.00213   0.46217   0.15156
C          C       0.46217   0.99787   0.15156
C          C       0.53783   0.00213   0.15156
C          C       0.46182   0.00028   0.36165
C          C       0.53818   0.99972   0.36165
C          C       0.99972   0.46182   0.36165
C          C       0.00028   0.53818   0.36165
C          C       0.96182   0.50028   0.11165
C          C       0.03818   0.49972   0.11165
C          C       0.49972   0.96182   0.11165
C          C       0.50028   0.03818   0.11165
C          C       0.46369   0.05688   0.39369
C          C       0.53631   0.94312   0.39369
C          C       0.94312   0.46369   0.39369
C          C       0.05688   0.53631   0.39369
C          C       0.96369   0.55688   0.14369
C          C       0.03631   0.44312   0.14369
C          C       0.44312   0.96369   0.14369
C          C       0.55688   0.03631   0.14369
C          C       0.45683   0.09482   0.40456
C          C       0.54317   0.90518   0.40456
C          C       0.90518   0.45683   0.40456
C          C       0.09482   0.54317   0.40456
C          C       0.95683   0.59482   0.15455
C          C       0.04317   0.40518   0.15455
C          C       0.40518   0.95683   0.15455
C          C       0.59482   0.04317   0.15455
C          C       0.48600   0.11457   0.42252
C          C       0.51400   0.88543   0.42252
C          C       0.88543   0.48600   0.42252
C          C       0.11457   0.51400   0.42252
C          C       0.98600   0.61457   0.17253
C          C       0.01400   0.38543   0.17253
C          C       0.38543   0.98600   0.17253
C          C       0.61457   0.01400   0.17253
C          C       0.52255   0.09717   0.42937
C          C       0.47745   0.90283   0.42937
C          C       0.90283   0.52255   0.42937
C          C       0.09717   0.47745   0.42937
C          C       0.02255   0.59717   0.17937
C          C       0.97745   0.40283   0.17937
C          C       0.40283   0.02255   0.17937
C          C       0.59717   0.97745   0.17937
C          C       0.52819   0.05789   0.41885
C          C       0.47181   0.94211   0.41885
C          C       0.94211   0.52819   0.41885
C          C       0.05789   0.47181   0.41885
C          C       0.02819   0.55789   0.16885
C          C       0.97181   0.44211   0.16885
C          C       0.44211   0.02819   0.16885
C          C       0.55789   0.97181   0.16885
C          C       0.44294   0.96872   0.34503
C          C       0.55706   0.03128   0.34503
C          C       0.03128   0.44294   0.34503
C          C       0.96872   0.55706   0.34503
C          C       0.94294   0.46872   0.09503
C          C       0.05706   0.53128   0.09503
C          C       0.53128   0.94294   0.09503
C          C       0.46872   0.05706   0.09503
C          C       0.40245   0.97102   0.33699
C          C       0.59755   0.02898   0.33699
C          C       0.02898   0.40245   0.33699
C          C       0.97102   0.59755   0.33699
C          C       0.90245   0.47102   0.08699
C          C       0.09755   0.52898   0.08699
C          C       0.52898   0.90245   0.08699
C          C       0.47102   0.09755   0.08699
C          C       0.38306   0.00644   0.34436
C          C       0.61694   0.99356   0.34436
C          C       0.99356   0.38306   0.34436
C          C       0.00644   0.61694   0.34436
C          C       0.88306   0.50644   0.09436
C          C       0.11694   0.49356   0.09436
C          C       0.49356   0.88306   0.09436
C          C       0.50644   0.11694   0.09436
C          C       0.40186   0.03710   0.36122
C          C       0.59814   0.96290   0.36122
C          C       0.96290   0.40186   0.36122
C          C       0.03710   0.59814   0.36122
C          C       0.90186   0.53710   0.11122
C          C       0.09814   0.46290   0.11122
C          C       0.46290   0.90186   0.11122
C          C       0.53710   0.09814   0.11122
C          C       0.44078   0.03299   0.37046
C          C       0.55922   0.96701   0.37046
C          C       0.96701   0.44078   0.37046
C          C       0.03299   0.55922   0.37046
C          C       0.94078   0.53299   0.12046
C          C       0.05922   0.46701   0.12046
C          C       0.46701   0.94078   0.12046
C          C       0.53299   0.05922   0.12046
C          C       0.55382   0.12146   0.44649
C          C       0.44618   0.87854   0.44649
C          C       0.87854   0.55382   0.44649
C          C       0.12146   0.44618   0.44649
C          C       0.05382   0.62146   0.19649
C          C       0.94618   0.37854   0.19649
C          C       0.37854   0.05382   0.19649
C          C       0.62146   0.94618   0.19649
C          C       0.37946   0.93674   0.32275
C          C       0.62054   0.06326   0.32275
C          C       0.06326   0.37946   0.32275
C          C       0.93674   0.62054   0.32275
C          C       0.87946   0.43674   0.07275
C          C       0.12054   0.56326   0.07275
C          C       0.56326   0.87946   0.07275
C          C       0.43674   0.12054   0.07275
C          C       0.54401   0.14487   0.47414
C          C       0.45599   0.85513   0.47414
C          C       0.85513   0.54401   0.47414
C          C       0.14487   0.45599   0.47414
C          C       0.04401   0.64487   0.22414
C          C       0.95599   0.35513   0.22414
C          C       0.35513   0.04401   0.22414
C          C       0.64487   0.95599   0.22414
C          C       0.57080   0.17108   0.48833
C          C       0.42920   0.82892   0.48833
C          C       0.82892   0.57080   0.48833
C          C       0.17108   0.42920   0.48833
C          C       0.07080   0.67108   0.23833
C          C       0.92920   0.32892   0.23833
C          C       0.32892   0.07080   0.23833
C          C       0.67108   0.92920   0.23833
C          C       0.60870   0.17560   0.47546
C          C       0.39130   0.82440   0.47546
C          C       0.82440   0.60870   0.47546
C          C       0.17560   0.39130   0.47546
C          C       0.10870   0.67560   0.22545
C          C       0.89130   0.32440   0.22545
C          C       0.32440   0.10870   0.22545
C          C       0.67560   0.89130   0.22545
C          C       0.61921   0.15165   0.44817
C          C       0.38079   0.84835   0.44817
C          C       0.84835   0.61921   0.44817
C          C       0.15165   0.38079   0.44817
C          C       0.11921   0.65165   0.19817
C          C       0.88079   0.34835   0.19817
C          C       0.34835   0.11921   0.19817
C          C       0.65165   0.88079   0.19817
C          C       0.59222   0.12483   0.43403
C          C       0.40778   0.87517   0.43403
C          C       0.87517   0.59222   0.43403
C          C       0.12483   0.40778   0.43403
C          C       0.09222   0.62483   0.18403
C          C       0.90778   0.37517   0.18403
C          C       0.37517   0.09222   0.18403
C          C       0.62483   0.90778   0.18403
C          C       0.39720   0.90746   0.30007
C          C       0.60280   0.09254   0.30007
C          C       0.09254   0.39720   0.30007
C          C       0.90746   0.60280   0.30007
C          C       0.89720   0.40746   0.05007
C          C       0.10280   0.59254   0.05007
C          C       0.59254   0.89720   0.05007
C          C       0.40746   0.10280   0.05007
C          C       0.37453   0.87711   0.28644
C          C       0.62547   0.12289   0.28644
C          C       0.12289   0.37453   0.28644
C          C       0.87711   0.62547   0.28644
C          C       0.87453   0.37711   0.03644
C          C       0.12547   0.62289   0.03644
C          C       0.62289   0.87453   0.03644
C          C       0.37711   0.12547   0.03644
C          C       0.33459   0.87290   0.29396
C          C       0.66541   0.12710   0.29396
C          C       0.12710   0.33459   0.29396
C          C       0.87290   0.66541   0.29396
C          C       0.83459   0.37290   0.04395
C          C       0.16541   0.62710   0.04395
C          C       0.62710   0.83459   0.04395
C          C       0.37290   0.16541   0.04395
C          C       0.31779   0.90015   0.31600
C          C       0.68221   0.09985   0.31600
C          C       0.09985   0.31779   0.31600
C          C       0.90015   0.68221   0.31600
C          C       0.81779   0.40015   0.06600
C          C       0.18221   0.59985   0.06600
C          C       0.59985   0.81779   0.06600
C          C       0.40015   0.18221   0.06600
C          C       0.33955   0.93111   0.33000
C          C       0.66045   0.06889   0.33000
C          C       0.06889   0.33955   0.33000
C          C       0.93111   0.66045   0.33000
C          C       0.83955   0.43111   0.08000
C          C       0.16045   0.56889   0.08000
C          C       0.56889   0.83955   0.08000
C          C       0.43111   0.16045   0.08000
C          C       0.63504   0.20584   0.49145
C          C       0.36496   0.79416   0.49145
C          C       0.79416   0.63504   0.49145
C          C       0.20584   0.36496   0.49145
C          C       0.13504   0.70584   0.24145
C          C       0.86496   0.29416   0.24145
C          C       0.29416   0.13504   0.24145
C          C       0.70584   0.86496   0.24145
C          C       0.31159   0.83984   0.27827
C          C       0.68841   0.16016   0.27827
C          C       0.16016   0.31159   0.27827
C          C       0.83984   0.68841   0.27827
C          C       0.81159   0.33984   0.02828
C          C       0.18841   0.66016   0.02828
C          C       0.66016   0.81159   0.02828
C          C       0.33984   0.18841   0.02828
C          C       0.69625   0.24453   0.49517
C          C       0.30375   0.75547   0.49517
C          C       0.75547   0.69625   0.49517
C          C       0.24453   0.30375   0.49517
C          C       0.19625   0.74453   0.24517
C          C       0.80375   0.25547   0.24517
C          C       0.25547   0.19625   0.24517
C          C       0.74453   0.80375   0.24517
N          N       0.67024   0.21476   0.48109
N          N       0.32976   0.78524   0.48109
N          N       0.78524   0.67024   0.48109
N          N       0.21476   0.32976   0.48109
N          N       0.17024   0.71476   0.23110
N          N       0.82976   0.28524   0.23110
N          N       0.28524   0.17024   0.23110
N          N       0.71476   0.82976   0.23110
N          N       0.27449   0.83356   0.28419
N          N       0.72551   0.16644   0.28419
N          N       0.16644   0.27449   0.28419
N          N       0.83356   0.72551   0.28419
N          N       0.77449   0.33356   0.03419
N          N       0.22551   0.66644   0.03419
N          N       0.66644   0.77449   0.03419
N          N       0.33356   0.22551   0.03419
C          C       0.68438   0.27219   0.01931
C          C       0.31562   0.72781   0.01931
C          C       0.72781   0.68438   0.01931
C          C       0.27219   0.31562   0.01931
C          C       0.18438   0.77219   0.26931
C          C       0.81562   0.22781   0.26931
C          C       0.22781   0.18438   0.26931
C          C       0.77219   0.81562   0.26931
C          C       0.71041   0.30066   0.03162
C          C       0.28959   0.69934   0.03162
C          C       0.69934   0.71041   0.03162
C          C       0.30066   0.28959   0.03162
C          C       0.21041   0.80066   0.28162
C          C       0.78959   0.19934   0.28162
C          C       0.19934   0.21041   0.28162
C          C       0.80066   0.78959   0.28162
C          C       0.74923   0.30300   0.02055
C          C       0.25077   0.69700   0.02055
C          C       0.69700   0.74923   0.02055
C          C       0.30300   0.25077   0.02055
C          C       0.24923   0.80300   0.27055
C          C       0.75077   0.19700   0.27055
C          C       0.19700   0.24923   0.27055
C          C       0.80300   0.75077   0.27055
C          C       0.76118   0.27553   0.49630
C          C       0.23882   0.72447   0.49630
C          C       0.72447   0.76118   0.49630
C          C       0.27553   0.23882   0.49630
C          C       0.26118   0.77553   0.24630
C          C       0.73882   0.22447   0.24630
C          C       0.22447   0.26118   0.24630
C          C       0.77553   0.73882   0.24630
C          C       0.73507   0.24701   0.48390
C          C       0.26493   0.75299   0.48390
C          C       0.75299   0.73507   0.48390
C          C       0.24701   0.26493   0.48390
C          C       0.23507   0.74701   0.23390
C          C       0.76493   0.25299   0.23390
C          C       0.25299   0.23507   0.23390
C          C       0.74701   0.76493   0.23390
H          H       0.43009   0.10959   0.39811
H          H       0.56991   0.89041   0.39811
H          H       0.89041   0.43009   0.39811
H          H       0.10959   0.56991   0.39811
H          H       0.93009   0.60959   0.14811
H          H       0.06991   0.39041   0.14811
H          H       0.39041   0.93009   0.14811
H          H       0.60959   0.06991   0.14811
H          H       0.48059   0.14438   0.42985
H          H       0.51941   0.85562   0.42985
H          H       0.85562   0.48059   0.42985
H          H       0.14438   0.51941   0.42985
H          H       0.98059   0.64438   0.17985
H          H       0.01941   0.35562   0.17985
H          H       0.35562   0.98059   0.17985
H          H       0.64438   0.01941   0.17985
H          H       0.55593   0.04377   0.42283
H          H       0.44407   0.95623   0.42283
H          H       0.95623   0.55593   0.42283
H          H       0.04377   0.44407   0.42283
H          H       0.05593   0.54377   0.17283
H          H       0.94407   0.45623   0.17283
H          H       0.45623   0.05593   0.17283
H          H       0.54377   0.94407   0.17283
H          H       0.45870   0.94190   0.34103
H          H       0.54130   0.05810   0.34103
H          H       0.05810   0.45870   0.34103
H          H       0.94190   0.54130   0.34103
H          H       0.95870   0.44190   0.09103
H          H       0.04130   0.55810   0.09103
H          H       0.55810   0.95870   0.09103
H          H       0.44190   0.04130   0.09103
H          H       0.35278   0.01023   0.33784
H          H       0.64722   0.98977   0.33784
H          H       0.98977   0.35278   0.33784
H          H       0.01023   0.64722   0.33784
H          H       0.85278   0.51023   0.08784
H          H       0.14722   0.48977   0.08784
H          H       0.48977   0.85278   0.08784
H          H       0.51023   0.14722   0.08784
H          H       0.38565   0.06277   0.36829
H          H       0.61435   0.93723   0.36829
H          H       0.93723   0.38565   0.36829
H          H       0.06277   0.61435   0.36829
H          H       0.88565   0.56277   0.11829
H          H       0.11435   0.43723   0.11829
H          H       0.43723   0.88565   0.11829
H          H       0.56277   0.11435   0.11829
H          H       0.51508   0.14324   0.48475
H          H       0.48492   0.85676   0.48475
H          H       0.85676   0.51508   0.48475
H          H       0.14324   0.48492   0.48475
H          H       0.01508   0.64324   0.23474
H          H       0.98492   0.35676   0.23474
H          H       0.35676   0.01508   0.23474
H          H       0.64324   0.98492   0.23474
H          H       0.56142   0.18855   0.00936
H          H       0.43858   0.81145   0.00936
H          H       0.81145   0.56142   0.00936
H          H       0.18855   0.43858   0.00936
H          H       0.06142   0.68855   0.25936
H          H       0.93858   0.31145   0.25936
H          H       0.31145   0.06142   0.25936
H          H       0.68855   0.93858   0.25936
H          H       0.64802   0.15395   0.43747
H          H       0.35198   0.84605   0.43747
H          H       0.84605   0.64802   0.43747
H          H       0.15395   0.35198   0.43747
H          H       0.14802   0.65395   0.18747
H          H       0.85198   0.34605   0.18747
H          H       0.34605   0.14802   0.18747
H          H       0.65395   0.85198   0.18747
H          H       0.60096   0.10773   0.41258
H          H       0.39904   0.89227   0.41258
H          H       0.89227   0.60096   0.41258
H          H       0.10773   0.39904   0.41258
H          H       0.10096   0.60773   0.16258
H          H       0.89904   0.39227   0.16258
H          H       0.39227   0.10096   0.16258
H          H       0.60773   0.89904   0.16258
H          H       0.42756   0.90974   0.29327
H          H       0.57244   0.09026   0.29327
H          H       0.09026   0.42756   0.29327
H          H       0.90974   0.57244   0.29327
H          H       0.92756   0.40974   0.04327
H          H       0.07244   0.59026   0.04327
H          H       0.59026   0.92756   0.04327
H          H       0.40974   0.07244   0.04327
H          H       0.38843   0.85666   0.26967
H          H       0.61157   0.14334   0.26967
H          H       0.14334   0.38843   0.26967
H          H       0.85666   0.61157   0.26967
H          H       0.88843   0.35666   0.01967
H          H       0.11157   0.64334   0.01967
H          H       0.64334   0.88843   0.01967
H          H       0.35666   0.11157   0.01967
H          H       0.28735   0.89759   0.32251
H          H       0.71265   0.10241   0.32251
H          H       0.10241   0.28735   0.32251
H          H       0.89759   0.71265   0.32251
H          H       0.78735   0.39759   0.07251
H          H       0.21265   0.60241   0.07251
H          H       0.60241   0.78735   0.07251
H          H       0.39759   0.21265   0.07251
H          H       0.32477   0.95057   0.34703
H          H       0.67523   0.04943   0.34703
H          H       0.04943   0.32477   0.34703
H          H       0.95057   0.67523   0.34703
H          H       0.82477   0.45057   0.09703
H          H       0.17523   0.54943   0.09703
H          H       0.54943   0.82477   0.09703
H          H       0.45057   0.17523   0.09703
H          H       0.62313   0.22088   0.01283
H          H       0.37687   0.77912   0.01283
H          H       0.77912   0.62313   0.01283
H          H       0.22088   0.37687   0.01283
H          H       0.12313   0.72088   0.26283
H          H       0.87687   0.27912   0.26283
H          H       0.27912   0.12313   0.26283
H          H       0.72088   0.87687   0.26283
H          H       0.32715   0.82075   0.26149
H          H       0.67285   0.17925   0.26149
H          H       0.17925   0.32715   0.26149
H          H       0.82075   0.67285   0.26149
H          H       0.82715   0.32075   0.01149
H          H       0.17285   0.67925   0.01149
H          H       0.67925   0.82715   0.01149
H          H       0.32075   0.17285   0.01149
H          H       0.65495   0.27259   0.02866
H          H       0.34505   0.72741   0.02866
H          H       0.72741   0.65495   0.02866
H          H       0.27259   0.34505   0.02866
H          H       0.15495   0.77259   0.27866
H          H       0.84505   0.22741   0.27866
H          H       0.22741   0.15495   0.27866
H          H       0.77259   0.84505   0.27866
H          H       0.70005   0.32133   0.05000
H          H       0.29995   0.67867   0.05000
H          H       0.67867   0.70005   0.05000
H          H       0.32133   0.29995   0.05000
H          H       0.20005   0.82133   0.30000
H          H       0.79995   0.17867   0.30000
H          H       0.17867   0.20005   0.30000
H          H       0.82133   0.79995   0.30000
H          H       0.79046   0.27587   0.48655
H          H       0.20954   0.72413   0.48655
H          H       0.72413   0.79046   0.48655
H          H       0.27587   0.20954   0.48655
H          H       0.29046   0.77587   0.23655
H          H       0.70954   0.22413   0.23655
H          H       0.22413   0.29046   0.23655
H          H       0.77587   0.70954   0.23655
H          H       0.74529   0.22661   0.46525
H          H       0.25471   0.77339   0.46525
H          H       0.77339   0.74529   0.46525
H          H       0.22661   0.25471   0.46525
H          H       0.24529   0.72661   0.21525
H          H       0.75471   0.27339   0.21525
H          H       0.27339   0.24529   0.21525
H          H       0.72661   0.75471   0.21525
C          C       0.00000   0.50000   0.13146
C          C       0.50000   0.00000   0.13146
C          C       0.50000   0.00000   0.38146
C          C       0.00000   0.50000   0.38146
C          C       0.49787   0.03783   0.90156
C          C       0.50213   0.96217   0.90156
C          C       0.96217   0.49787   0.90156
C          C       0.03783   0.50213   0.90156
C          C       0.99787   0.53783   0.65156
C          C       0.00213   0.46217   0.65156
C          C       0.46217   0.99787   0.65156
C          C       0.53783   0.00213   0.65156
C          C       0.46182   0.00028   0.86165
C          C       0.53818   0.99972   0.86165
C          C       0.99972   0.46182   0.86165
C          C       0.00028   0.53818   0.86165
C          C       0.96182   0.50028   0.61165
C          C       0.03818   0.49972   0.61165
C          C       0.49972   0.96182   0.61165
C          C       0.50028   0.03818   0.61165
C          C       0.46369   0.05688   0.89368
C          C       0.53631   0.94312   0.89368
C          C       0.94312   0.46369   0.89368
C          C       0.05688   0.53631   0.89368
C          C       0.96369   0.55688   0.64369
C          C       0.03631   0.44312   0.64369
C          C       0.44312   0.96369   0.64369
C          C       0.55688   0.03631   0.64369
C          C       0.45683   0.09482   0.90455
C          C       0.54317   0.90518   0.90455
C          C       0.90518   0.45683   0.90455
C          C       0.09482   0.54317   0.90455
C          C       0.95683   0.59482   0.65455
C          C       0.04317   0.40518   0.65455
C          C       0.40518   0.95683   0.65455
C          C       0.59482   0.04317   0.65455
C          C       0.48600   0.11457   0.92252
C          C       0.51400   0.88543   0.92252
C          C       0.88543   0.48600   0.92252
C          C       0.11457   0.51400   0.92252
C          C       0.98600   0.61457   0.67253
C          C       0.01400   0.38543   0.67253
C          C       0.38543   0.98600   0.67253
C          C       0.61457   0.01400   0.67253
C          C       0.52255   0.09717   0.92937
C          C       0.47745   0.90283   0.92937
C          C       0.90283   0.52255   0.92937
C          C       0.09717   0.47745   0.92937
C          C       0.02255   0.59717   0.67937
C          C       0.97745   0.40283   0.67937
C          C       0.40283   0.02255   0.67937
C          C       0.59717   0.97745   0.67937
C          C       0.52819   0.05789   0.91885
C          C       0.47181   0.94211   0.91885
C          C       0.94211   0.52819   0.91885
C          C       0.05789   0.47181   0.91885
C          C       0.02819   0.55789   0.66885
C          C       0.97181   0.44211   0.66885
C          C       0.44211   0.02819   0.66885
C          C       0.55789   0.97181   0.66885
C          C       0.44294   0.96872   0.84503
C          C       0.55706   0.03128   0.84503
C          C       0.03128   0.44294   0.84503
C          C       0.96872   0.55706   0.84503
C          C       0.94294   0.46872   0.59503
C          C       0.05706   0.53128   0.59503
C          C       0.53128   0.94294   0.59503
C          C       0.46872   0.05706   0.59503
C          C       0.40245   0.97102   0.83699
C          C       0.59755   0.02898   0.83699
C          C       0.02898   0.40245   0.83699
C          C       0.97102   0.59755   0.83699
C          C       0.90245   0.47102   0.58699
C          C       0.09755   0.52898   0.58699
C          C       0.52898   0.90245   0.58699
C          C       0.47102   0.09755   0.58699
C          C       0.38306   0.00644   0.84436
C          C       0.61694   0.99356   0.84436
C          C       0.99356   0.38306   0.84436
C          C       0.00644   0.61694   0.84436
C          C       0.88306   0.50644   0.59436
C          C       0.11694   0.49356   0.59436
C          C       0.49356   0.88306   0.59436
C          C       0.50644   0.11694   0.59436
C          C       0.40186   0.03710   0.86122
C          C       0.59814   0.96290   0.86122
C          C       0.96290   0.40186   0.86122
C          C       0.03710   0.59814   0.86122
C          C       0.90186   0.53710   0.61122
C          C       0.09814   0.46290   0.61122
C          C       0.46290   0.90186   0.61122
C          C       0.53710   0.09814   0.61122
C          C       0.44078   0.03299   0.87046
C          C       0.55922   0.96701   0.87046
C          C       0.96701   0.44078   0.87046
C          C       0.03299   0.55922   0.87046
C          C       0.94078   0.53299   0.62046
C          C       0.05922   0.46701   0.62046
C          C       0.46701   0.94078   0.62046
C          C       0.53299   0.05922   0.62046
C          C       0.55382   0.12146   0.94649
C          C       0.44618   0.87854   0.94649
C          C       0.87854   0.55382   0.94649
C          C       0.12146   0.44618   0.94649
C          C       0.05382   0.62146   0.69649
C          C       0.94618   0.37854   0.69649
C          C       0.37854   0.05382   0.69649
C          C       0.62146   0.94618   0.69649
C          C       0.37946   0.93674   0.82275
C          C       0.62054   0.06326   0.82275
C          C       0.06326   0.37946   0.82275
C          C       0.93674   0.62054   0.82275
C          C       0.87946   0.43674   0.57275
C          C       0.12054   0.56326   0.57275
C          C       0.56326   0.87946   0.57275
C          C       0.43674   0.12054   0.57275
C          C       0.54401   0.14487   0.97415
C          C       0.45599   0.85513   0.97415
C          C       0.85513   0.54401   0.97415
C          C       0.14487   0.45599   0.97415
C          C       0.04401   0.64487   0.72414
C          C       0.95599   0.35513   0.72414
C          C       0.35513   0.04401   0.72414
C          C       0.64487   0.95599   0.72414
C          C       0.57080   0.17108   0.98833
C          C       0.42920   0.82892   0.98833
C          C       0.82892   0.57080   0.98833
C          C       0.17108   0.42920   0.98833
C          C       0.07080   0.67108   0.73833
C          C       0.92920   0.32892   0.73833
C          C       0.32892   0.07080   0.73833
C          C       0.67108   0.92920   0.73833
C          C       0.60870   0.17560   0.97545
C          C       0.39130   0.82440   0.97545
C          C       0.82440   0.60870   0.97545
C          C       0.17560   0.39130   0.97545
C          C       0.10870   0.67560   0.72545
C          C       0.89130   0.32440   0.72545
C          C       0.32440   0.10870   0.72545
C          C       0.67560   0.89130   0.72545
C          C       0.61921   0.15165   0.94817
C          C       0.38079   0.84835   0.94817
C          C       0.84835   0.61921   0.94817
C          C       0.15165   0.38079   0.94817
C          C       0.11921   0.65165   0.69817
C          C       0.88079   0.34835   0.69817
C          C       0.34835   0.11921   0.69817
C          C       0.65165   0.88079   0.69817
C          C       0.59222   0.12483   0.93403
C          C       0.40778   0.87517   0.93403
C          C       0.87517   0.59222   0.93403
C          C       0.12483   0.40778   0.93403
C          C       0.09222   0.62483   0.68403
C          C       0.90778   0.37517   0.68403
C          C       0.37517   0.09222   0.68403
C          C       0.62483   0.90778   0.68403
C          C       0.39720   0.90746   0.80007
C          C       0.60280   0.09254   0.80007
C          C       0.09254   0.39720   0.80007
C          C       0.90746   0.60280   0.80007
C          C       0.89720   0.40746   0.55007
C          C       0.10280   0.59254   0.55007
C          C       0.59254   0.89720   0.55007
C          C       0.40746   0.10280   0.55007
C          C       0.37453   0.87711   0.78644
C          C       0.62547   0.12289   0.78644
C          C       0.12289   0.37453   0.78644
C          C       0.87711   0.62547   0.78644
C          C       0.87453   0.37711   0.53644
C          C       0.12547   0.62289   0.53644
C          C       0.62289   0.87453   0.53644
C          C       0.37711   0.12547   0.53644
C          C       0.33459   0.87290   0.79396
C          C       0.66541   0.12710   0.79396
C          C       0.12710   0.33459   0.79396
C          C       0.87290   0.66541   0.79396
C          C       0.83459   0.37290   0.54395
C          C       0.16541   0.62710   0.54395
C          C       0.62710   0.83459   0.54395
C          C       0.37290   0.16541   0.54395
C          C       0.31779   0.90015   0.81600
C          C       0.68221   0.09985   0.81600
C          C       0.09985   0.31779   0.81600
C          C       0.90015   0.68221   0.81600
C          C       0.81779   0.40015   0.56600
C          C       0.18221   0.59985   0.56600
C          C       0.59985   0.81779   0.56600
C          C       0.40015   0.18221   0.56600
C          C       0.33955   0.93111   0.83000
C          C       0.66045   0.06889   0.83000
C          C       0.06889   0.33955   0.83000
C          C       0.93111   0.66045   0.83000
C          C       0.83955   0.43111   0.58000
C          C       0.16045   0.56889   0.58000
C          C       0.56889   0.83955   0.58000
C          C       0.43111   0.16045   0.58000
C          C       0.63504   0.20584   0.99145
C          C       0.36496   0.79416   0.99145
C          C       0.79416   0.63504   0.99145
C          C       0.20584   0.36496   0.99145
C          C       0.13504   0.70584   0.74145
C          C       0.86496   0.29416   0.74145
C          C       0.29416   0.13504   0.74145
C          C       0.70584   0.86496   0.74145
C          C       0.31159   0.83984   0.77828
C          C       0.68841   0.16016   0.77828
C          C       0.16016   0.31159   0.77828
C          C       0.83984   0.68841   0.77828
C          C       0.81159   0.33984   0.52828
C          C       0.18841   0.66016   0.52828
C          C       0.66016   0.81159   0.52828
C          C       0.33984   0.18841   0.52828
C          C       0.69625   0.24453   0.99518
C          C       0.30375   0.75547   0.99518
C          C       0.75547   0.69625   0.99518
C          C       0.24453   0.30375   0.99518
C          C       0.19625   0.74453   0.74517
C          C       0.80375   0.25547   0.74517
C          C       0.25547   0.19625   0.74517
C          C       0.74453   0.80375   0.74517
N          N       0.67024   0.21476   0.98110
N          N       0.32976   0.78524   0.98110
N          N       0.78524   0.67024   0.98110
N          N       0.21476   0.32976   0.98110
N          N       0.17024   0.71476   0.73110
N          N       0.82976   0.28524   0.73110
N          N       0.28524   0.17024   0.73110
N          N       0.71476   0.82976   0.73110
N          N       0.27449   0.83356   0.78419
N          N       0.72551   0.16644   0.78419
N          N       0.16644   0.27449   0.78419
N          N       0.83356   0.72551   0.78419
N          N       0.77449   0.33356   0.53419
N          N       0.22551   0.66644   0.53419
N          N       0.66644   0.77449   0.53419
N          N       0.33356   0.22551   0.53419
C          C       0.68438   0.27219   0.51931
C          C       0.31562   0.72781   0.51931
C          C       0.72781   0.68438   0.51931
C          C       0.27219   0.31562   0.51931
C          C       0.18438   0.77219   0.76931
C          C       0.81562   0.22781   0.76931
C          C       0.22781   0.18438   0.76931
C          C       0.77219   0.81562   0.76931
C          C       0.71041   0.30066   0.53162
C          C       0.28959   0.69934   0.53162
C          C       0.69934   0.71041   0.53162
C          C       0.30066   0.28959   0.53162
C          C       0.21041   0.80066   0.78162
C          C       0.78959   0.19934   0.78162
C          C       0.19934   0.21041   0.78162
C          C       0.80066   0.78959   0.78162
C          C       0.74923   0.30300   0.52055
C          C       0.25077   0.69700   0.52055
C          C       0.69700   0.74923   0.52055
C          C       0.30300   0.25077   0.52055
C          C       0.24923   0.80300   0.77055
C          C       0.75077   0.19700   0.77055
C          C       0.19700   0.24923   0.77055
C          C       0.80300   0.75077   0.77055
C          C       0.76118   0.27553   0.99630
C          C       0.23882   0.72447   0.99630
C          C       0.72447   0.76118   0.99630
C          C       0.27553   0.23882   0.99630
C          C       0.26118   0.77553   0.74630
C          C       0.73882   0.22447   0.74630
C          C       0.22447   0.26118   0.74630
C          C       0.77553   0.73882   0.74630
C          C       0.73507   0.24701   0.98391
C          C       0.26493   0.75299   0.98391
C          C       0.75299   0.73507   0.98391
C          C       0.24701   0.26493   0.98391
C          C       0.23507   0.74701   0.73390
C          C       0.76493   0.25299   0.73390
C          C       0.25299   0.23507   0.73390
C          C       0.74701   0.76493   0.73390
H          H       0.43009   0.10959   0.89811
H          H       0.56991   0.89041   0.89811
H          H       0.89041   0.43009   0.89811
H          H       0.10959   0.56991   0.89811
H          H       0.93009   0.60959   0.64811
H          H       0.06991   0.39041   0.64811
H          H       0.39041   0.93009   0.64811
H          H       0.60959   0.06991   0.64811
H          H       0.48059   0.14438   0.92985
H          H       0.51941   0.85562   0.92985
H          H       0.85562   0.48059   0.92985
H          H       0.14438   0.51941   0.92985
H          H       0.98059   0.64438   0.67985
H          H       0.01941   0.35562   0.67985
H          H       0.35562   0.98059   0.67985
H          H       0.64438   0.01941   0.67985
H          H       0.55593   0.04377   0.92282
H          H       0.44407   0.95623   0.92282
H          H       0.95623   0.55593   0.92282
H          H       0.04377   0.44407   0.92282
H          H       0.05593   0.54377   0.67283
H          H       0.94407   0.45623   0.67283
H          H       0.45623   0.05593   0.67283
H          H       0.54377   0.94407   0.67283
H          H       0.45870   0.94190   0.84103
H          H       0.54130   0.05810   0.84103
H          H       0.05810   0.45870   0.84103
H          H       0.94190   0.54130   0.84103
H          H       0.95870   0.44190   0.59103
H          H       0.04130   0.55810   0.59103
H          H       0.55810   0.95870   0.59103
H          H       0.44190   0.04130   0.59103
H          H       0.35278   0.01023   0.83784
H          H       0.64722   0.98977   0.83784
H          H       0.98977   0.35278   0.83784
H          H       0.01023   0.64722   0.83784
H          H       0.85278   0.51023   0.58784
H          H       0.14722   0.48977   0.58784
H          H       0.48977   0.85278   0.58784
H          H       0.51023   0.14722   0.58784
H          H       0.38565   0.06277   0.86829
H          H       0.61435   0.93723   0.86829
H          H       0.93723   0.38565   0.86829
H          H       0.06277   0.61435   0.86829
H          H       0.88565   0.56277   0.61829
H          H       0.11435   0.43723   0.61829
H          H       0.43723   0.88565   0.61829
H          H       0.56277   0.11435   0.61829
H          H       0.51508   0.14324   0.98474
H          H       0.48492   0.85676   0.98474
H          H       0.85676   0.51508   0.98474
H          H       0.14324   0.48492   0.98474
H          H       0.01508   0.64324   0.73474
H          H       0.98492   0.35676   0.73474
H          H       0.35676   0.01508   0.73474
H          H       0.64324   0.98492   0.73474
H          H       0.56142   0.18855   0.50936
H          H       0.43858   0.81145   0.50936
H          H       0.81145   0.56142   0.50936
H          H       0.18855   0.43858   0.50936
H          H       0.06142   0.68855   0.75936
H          H       0.93858   0.31145   0.75936
H          H       0.31145   0.06142   0.75936
H          H       0.68855   0.93858   0.75936
H          H       0.64802   0.15395   0.93747
H          H       0.35198   0.84605   0.93747
H          H       0.84605   0.64802   0.93747
H          H       0.15395   0.35198   0.93747
H          H       0.14802   0.65395   0.68747
H          H       0.85198   0.34605   0.68747
H          H       0.34605   0.14802   0.68747
H          H       0.65395   0.85198   0.68747
H          H       0.60096   0.10773   0.91258
H          H       0.39904   0.89227   0.91258
H          H       0.89227   0.60096   0.91258
H          H       0.10773   0.39904   0.91258
H          H       0.10096   0.60773   0.66258
H          H       0.89904   0.39227   0.66258
H          H       0.39227   0.10096   0.66258
H          H       0.60773   0.89904   0.66258
H          H       0.42756   0.90974   0.79327
H          H       0.57244   0.09026   0.79327
H          H       0.09026   0.42756   0.79327
H          H       0.90974   0.57244   0.79327
H          H       0.92756   0.40974   0.54327
H          H       0.07244   0.59026   0.54327
H          H       0.59026   0.92756   0.54327
H          H       0.40974   0.07244   0.54327
H          H       0.38843   0.85666   0.76967
H          H       0.61157   0.14334   0.76967
H          H       0.14334   0.38843   0.76967
H          H       0.85666   0.61157   0.76967
H          H       0.88843   0.35666   0.51967
H          H       0.11157   0.64334   0.51967
H          H       0.64334   0.88843   0.51967
H          H       0.35666   0.11157   0.51967
H          H       0.28735   0.89759   0.82251
H          H       0.71265   0.10241   0.82251
H          H       0.10241   0.28735   0.82251
H          H       0.89759   0.71265   0.82251
H          H       0.78735   0.39759   0.57251
H          H       0.21265   0.60241   0.57251
H          H       0.60241   0.78735   0.57251
H          H       0.39759   0.21265   0.57251
H          H       0.32477   0.95057   0.84703
H          H       0.67523   0.04943   0.84703
H          H       0.04943   0.32477   0.84703
H          H       0.95057   0.67523   0.84703
H          H       0.82477   0.45057   0.59703
H          H       0.17523   0.54943   0.59703
H          H       0.54943   0.82477   0.59703
H          H       0.45057   0.17523   0.59703
H          H       0.62313   0.22088   0.51283
H          H       0.37687   0.77912   0.51283
H          H       0.77912   0.62313   0.51283
H          H       0.22088   0.37687   0.51283
H          H       0.12313   0.72088   0.76283
H          H       0.87687   0.27912   0.76283
H          H       0.27912   0.12313   0.76283
H          H       0.72088   0.87687   0.76283
H          H       0.32715   0.82075   0.76149
H          H       0.67285   0.17925   0.76149
H          H       0.17925   0.32715   0.76149
H          H       0.82075   0.67285   0.76149
H          H       0.82715   0.32075   0.51149
H          H       0.17285   0.67925   0.51149
H          H       0.67925   0.82715   0.51149
H          H       0.32075   0.17285   0.51149
H          H       0.65495   0.27259   0.52866
H          H       0.34505   0.72741   0.52866
H          H       0.72741   0.65495   0.52866
H          H       0.27259   0.34505   0.52866
H          H       0.15495   0.77259   0.77866
H          H       0.84505   0.22741   0.77866
H          H       0.22741   0.15495   0.77866
H          H       0.77259   0.84505   0.77866
H          H       0.70005   0.32133   0.55000
H          H       0.29995   0.67867   0.55000
H          H       0.67867   0.70005   0.55000
H          H       0.32133   0.29995   0.55000
H          H       0.20005   0.82133   0.80000
H          H       0.79995   0.17867   0.80000
H          H       0.17867   0.20005   0.80000
H          H       0.82133   0.79995   0.80000
H          H       0.79046   0.27587   0.98655
H          H       0.20954   0.72413   0.98655
H          H       0.72413   0.79046   0.98655
H          H       0.27587   0.20954   0.98655
H          H       0.29046   0.77587   0.73655
H          H       0.70954   0.22413   0.73655
H          H       0.22413   0.29046   0.73655
H          H       0.77587   0.70954   0.73655
H          H       0.74529   0.22661   0.96525
H          H       0.25471   0.77339   0.96525
H          H       0.77339   0.74529   0.96525
H          H       0.22661   0.25471   0.96525
H          H       0.24529   0.72661   0.71525
H          H       0.75471   0.27339   0.71525
H          H       0.27339   0.24529   0.71525
H          H       0.72661   0.75471   0.71525
C          C       0.00000   0.50000   0.63147
C          C       0.50000   0.00000   0.63147
C          C       0.50000   0.00000   0.88147
C          C       0.00000   0.50000   0.88147
