data_crystal

_cell_length_a    36.83570
_cell_length_b    36.83570
_cell_length_c    15.56860
_cell_angle_alpha 90.00000
_cell_angle_beta  90.00000
_cell_angle_gamma 120.00000

_space_group_name_Hall 'P 1'
_space_group_name_H-M_alt 'P 1'

loop_
_symmetry_equiv_pos_as_xyz
 'x,y,z'

loop_
_atom_site_label
_atom_site_type_symbol
_atom_site_fract_x
_atom_site_fract_y
_atom_site_fract_z
C          C       0.69026   0.31241   0.24719
C          C       0.68759   0.37785   0.24719
C          C       0.62215   0.30974   0.24719
C          C       0.30974   0.68759   0.49719
C          C       0.31241   0.62215   0.49719
C          C       0.37785   0.69026   0.49719
C          C       0.71378   0.29186   0.24099
C          C       0.70814   0.42192   0.24099
C          C       0.57808   0.28622   0.24099
C          C       0.28622   0.70814   0.49099
C          C       0.29186   0.57808   0.49099
C          C       0.42192   0.71378   0.49099
C          C       0.73291   0.24655   0.15782
C          C       0.75345   0.48636   0.15782
C          C       0.51364   0.26709   0.15782
C          C       0.26709   0.75345   0.40782
C          C       0.24655   0.51364   0.40782
C          C       0.48636   0.73291   0.40782
C          C       0.76728   0.27722   0.29602
C          C       0.72278   0.49006   0.29602
C          C       0.50994   0.23272   0.29602
C          C       0.23272   0.72278   0.04602
C          C       0.27722   0.50994   0.04602
C          C       0.49006   0.76728   0.04602
N          N       0.78514   0.23289   0.21773
N          N       0.76711   0.55225   0.21773
N          N       0.44775   0.21486   0.21773
N          N       0.21486   0.76711   0.46773
N          N       0.23289   0.44775   0.46773
N          N       0.55225   0.78514   0.46773
C          C       0.80957   0.19057   0.15023
C          C       0.80943   0.61900   0.15023
C          C       0.38100   0.19043   0.15023
C          C       0.19043   0.80943   0.40023
C          C       0.19057   0.38100   0.40023
C          C       0.61900   0.80957   0.40023
C          C       0.82505   0.13524   0.11368
C          C       0.86476   0.68981   0.11368
C          C       0.31019   0.17495   0.11368
C          C       0.17495   0.86476   0.36368
C          C       0.13524   0.31019   0.36368
C          C       0.68981   0.82505   0.36368
C          C       0.73269   0.08161   0.07021
C          C       0.91839   0.65108   0.07021
C          C       0.34892   0.26731   0.07021
C          C       0.26731   0.91839   0.32022
C          C       0.08161   0.34892   0.32022
C          C       0.65108   0.73269   0.32022
H          H       0.68581   0.26128   0.12541
H          H       0.73872   0.42453   0.12541
H          H       0.57547   0.31419   0.12541
H          H       0.31419   0.73872   0.37541
H          H       0.26128   0.57547   0.37541
H          H       0.42453   0.68581   0.37541
H          H       0.78841   0.28110   0.34288
H          H       0.71890   0.50731   0.34288
H          H       0.49269   0.21159   0.34288
H          H       0.21159   0.71890   0.09288
H          H       0.28110   0.49269   0.09288
H          H       0.50731   0.78841   0.09288
C          C       0.75591   0.20337   0.08225
C          C       0.79663   0.55254   0.08225
C          C       0.44746   0.24409   0.08225
C          C       0.24409   0.79663   0.33225
C          C       0.20337   0.44746   0.33225
C          C       0.55254   0.75591   0.33225
H          H       0.73553   0.06082   0.11621
H          H       0.93918   0.67471   0.11621
H          H       0.32529   0.26447   0.11621
H          H       0.26447   0.93918   0.36621
H          H       0.06082   0.32529   0.36621
H          H       0.67471   0.73553   0.36621
H          H       0.69962   0.07182   0.06268
H          H       0.92818   0.62780   0.06268
H          H       0.37220   0.30038   0.06268
H          H       0.30038   0.92818   0.31268
H          H       0.07182   0.37220   0.31268
H          H       0.62780   0.69962   0.31268
C          C       0.70071   0.24736   0.47767
C          C       0.75264   0.45335   0.47767
C          C       0.54665   0.29929   0.47767
C          C       0.29929   0.75264   0.22767
C          C       0.24736   0.54665   0.22767
C          C       0.45335   0.70071   0.22767
H          H       0.75523   0.18656   0.02924
H          H       0.81344   0.56867   0.02924
H          H       0.43133   0.24477   0.02924
H          H       0.24477   0.81344   0.27924
H          H       0.18656   0.43133   0.27924
H          H       0.56867   0.75523   0.27924
C          C       0.95674   0.97659   0.10408
C          C       0.02341   0.98015   0.10408
C          C       0.01985   0.04326   0.10408
C          C       0.04326   0.02341   0.35408
C          C       0.97659   0.01985   0.35408
C          C       0.98015   0.95674   0.35408
C          C       0.96885   0.08499   0.12348
C          C       0.91501   0.88386   0.12348
C          C       0.11614   0.03115   0.12348
C          C       0.03115   0.91501   0.37349
C          C       0.08499   0.11614   0.37349
C          C       0.88386   0.96885   0.37349
C          C       0.90348   0.08396   0.10304
C          C       0.91604   0.81952   0.10304
C          C       0.18048   0.09652   0.10304
C          C       0.09652   0.91604   0.35303
C          C       0.08396   0.18048   0.35303
C          C       0.81952   0.90348   0.35303
C          C       0.90730   0.02054   0.08427
C          C       0.97946   0.88676   0.08427
C          C       0.11324   0.09270   0.08427
C          C       0.09270   0.97946   0.33427
C          C       0.02054   0.11324   0.33427
C          C       0.88676   0.90730   0.33427
C          C       0.89589   0.14469   0.12251
C          C       0.85531   0.75120   0.12251
C          C       0.24880   0.10411   0.12251
C          C       0.10411   0.85531   0.37250
C          C       0.14469   0.24880   0.37250
C          C       0.75120   0.89589   0.37250
C          C       0.87966   0.19926   0.17780
C          C       0.80074   0.68040   0.17780
C          C       0.31960   0.12034   0.17780
C          C       0.12034   0.80074   0.42780
C          C       0.19926   0.31960   0.42780
C          C       0.68040   0.87966   0.42780
O          O       0.91816   0.22147   0.21563
O          O       0.77853   0.69669   0.21563
O          O       0.30331   0.08184   0.21563
O          O       0.08184   0.77853   0.46563
O          O       0.22147   0.30331   0.46563
O          O       0.69669   0.91816   0.46563
H          H       0.92519   0.95963   0.10298
H          H       0.04037   0.96556   0.10298
H          H       0.03444   0.07481   0.10298
H          H       0.07481   0.04037   0.35298
H          H       0.95963   0.03444   0.35298
H          H       0.96556   0.92519   0.35298
C          C       0.96691   0.15247   0.11690
C          C       0.84753   0.81444   0.11690
C          C       0.18556   0.03309   0.11690
C          C       0.03309   0.84753   0.36690
C          C       0.15247   0.18556   0.36690
C          C       0.81444   0.96691   0.36690
H          H       0.89111   0.98972   0.06755
H          H       0.01028   0.90139   0.06755
H          H       0.09861   0.10889   0.06755
H          H       0.10889   0.01028   0.31755
H          H       0.98972   0.09861   0.31755
H          H       0.90139   0.89111   0.31755
H          H       0.86102   0.24347   0.20602
H          H       0.75653   0.61755   0.20602
H          H       0.38245   0.13898   0.20602
H          H       0.13898   0.75653   0.45602
H          H       0.24347   0.38245   0.45602
H          H       0.61755   0.86102   0.45602
H          H       0.94007   0.28560   0.21973
H          H       0.71440   0.65447   0.21973
H          H       0.34553   0.05993   0.21973
H          H       0.05993   0.71440   0.46973
H          H       0.28560   0.34553   0.46973
H          H       0.65447   0.94007   0.46973
C          C       0.01117   0.18028   0.11669
C          C       0.81972   0.83089   0.11669
C          C       0.16911   0.98883   0.11669
C          C       0.98883   0.81972   0.36669
C          C       0.18028   0.16911   0.36669
C          C       0.83089   0.01117   0.36669
C          C       0.08231   0.19937   0.06796
C          C       0.80063   0.88294   0.06796
C          C       0.11706   0.91769   0.06796
C          C       0.91769   0.80063   0.31795
C          C       0.19937   0.11706   0.31795
C          C       0.88294   0.08231   0.31795
C          C       0.07336   0.24514   0.16648
C          C       0.75486   0.82822   0.16648
C          C       0.17178   0.92664   0.16648
C          C       0.92664   0.75486   0.41648
C          C       0.24514   0.17178   0.41648
C          C       0.82822   0.07336   0.41648
H          H       0.95314   0.20163   0.11346
H          H       0.79837   0.75151   0.11346
H          H       0.24849   0.04686   0.11346
H          H       0.04686   0.79837   0.36345
H          H       0.20163   0.24849   0.36345
H          H       0.75151   0.95314   0.36345
H          H       0.10151   0.19226   0.03358
H          H       0.80774   0.90925   0.03358
H          H       0.09075   0.89849   0.03358
H          H       0.89849   0.80774   0.28358
H          H       0.19226   0.09075   0.28358
H          H       0.90925   0.10151   0.28358
H          H       0.08585   0.27218   0.20106
H          H       0.72782   0.81367   0.20106
H          H       0.18633   0.91415   0.20106
H          H       0.91415   0.72782   0.45106
H          H       0.27218   0.18633   0.45106
H          H       0.81367   0.08585   0.45106
H          H       0.44039   0.71616   0.25143
H          H       0.28384   0.72423   0.25143
H          H       0.27577   0.55961   0.25143
H          H       0.55961   0.28384   0.00143
H          H       0.71616   0.27577   0.00143
H          H       0.72423   0.44039   0.00143
C          C       0.71070   0.35666   0.24797
C          C       0.64334   0.35404   0.24797
C          C       0.64596   0.28930   0.24797
C          C       0.28930   0.64334   0.49797
C          C       0.35666   0.64596   0.49797
C          C       0.35404   0.71070   0.49797
C          C       0.70820   0.26581   0.16956
C          C       0.73419   0.44239   0.16956
C          C       0.55761   0.29180   0.16956
C          C       0.29180   0.73419   0.41956
C          C       0.26581   0.55761   0.41956
C          C       0.44239   0.70820   0.41956
C          C       0.76193   0.25200   0.22385
C          C       0.74800   0.50993   0.22385
C          C       0.49007   0.23807   0.22385
C          C       0.23807   0.74800   0.47386
C          C       0.25200   0.49007   0.47386
C          C       0.50993   0.76193   0.47386
C          C       0.74377   0.29753   0.30388
C          C       0.70247   0.44624   0.30388
C          C       0.55376   0.25623   0.30388
C          C       0.25623   0.70247   0.05388
C          C       0.29753   0.55376   0.05388
C          C       0.44624   0.74377   0.05388
C          C       0.78332   0.20847   0.15063
C          C       0.79153   0.57485   0.15063
C          C       0.42515   0.21668   0.15063
C          C       0.21668   0.79153   0.40063
C          C       0.20847   0.42515   0.40063
C          C       0.57485   0.78332   0.40063
C          C       0.79588   0.14933   0.12055
C          C       0.85067   0.64655   0.12055
C          C       0.35345   0.20412   0.12055
C          C       0.20412   0.85067   0.37055
C          C       0.14933   0.35345   0.37055
C          C       0.64655   0.79588   0.37055
O          O       0.75449   0.12396   0.10067
O          O       0.87604   0.63053   0.10067
O          O       0.36947   0.24551   0.10067
O          O       0.24551   0.87604   0.35067
O          O       0.12396   0.36947   0.35067
O          O       0.63053   0.75449   0.35067
H          H       0.74281   0.37371   0.24735
H          H       0.62629   0.36910   0.24735
H          H       0.63090   0.25719   0.24735
H          H       0.25719   0.62629   0.49735
H          H       0.37371   0.63090   0.49735
H          H       0.36910   0.74281   0.49735
C          C       0.73037   0.22203   0.08470
C          C       0.77797   0.50834   0.08470
C          C       0.49166   0.26963   0.08470
C          C       0.26963   0.77797   0.33470
C          C       0.22203   0.49166   0.33470
C          C       0.50834   0.73037   0.33470
H          H       0.74852   0.31627   0.35613
H          H       0.68373   0.43225   0.35613
H          H       0.56775   0.25148   0.35613
H          H       0.25148   0.68373   0.10613
H          H       0.31627   0.56775   0.10613
H          H       0.43225   0.74852   0.10613
H          H       0.81432   0.10566   0.09116
H          H       0.89434   0.70866   0.09116
H          H       0.29134   0.18568   0.09116
H          H       0.18568   0.89434   0.34116
H          H       0.10566   0.29134   0.34116
H          H       0.70866   0.81432   0.34116
H          H       0.74510   0.07938   0.00808
H          H       0.92062   0.66572   0.00808
H          H       0.33428   0.25490   0.00808
H          H       0.25490   0.92062   0.25808
H          H       0.07938   0.33428   0.25808
H          H       0.66572   0.74510   0.25808
H          H       0.70441   0.21584   0.01306
H          H       0.78416   0.48857   0.01306
H          H       0.51143   0.29559   0.01306
H          H       0.29559   0.78416   0.26306
H          H       0.21584   0.51143   0.26306
H          H       0.48857   0.70441   0.26306
O          O       0.68450   0.18076   0.47734
O          O       0.81924   0.50374   0.47734
O          O       0.49626   0.31550   0.47734
O          O       0.31550   0.81924   0.22734
O          O       0.18076   0.49626   0.22734
O          O       0.50374   0.68450   0.22734
C          C       0.97532   0.02086   0.10446
C          C       0.97914   0.95446   0.10446
C          C       0.04554   0.02468   0.10446
C          C       0.02468   0.97914   0.35446
C          C       0.02086   0.04554   0.35446
C          C       0.95446   0.97532   0.35446
C          C       0.95089   0.04153   0.10416
C          C       0.95847   0.90936   0.10416
C          C       0.09064   0.04911   0.10416
C          C       0.04911   0.95847   0.35417
C          C       0.04153   0.09064   0.35417
C          C       0.90936   0.95089   0.35417
C          C       0.94746   0.10777   0.11427
C          C       0.89223   0.83969   0.11427
C          C       0.16031   0.05254   0.11427
C          C       0.05254   0.89223   0.36427
C          C       0.10777   0.16031   0.36427
C          C       0.83969   0.94746   0.36427
C          C       0.88360   0.04076   0.08708
C          C       0.95924   0.84284   0.08708
C          C       0.15716   0.11640   0.08708
C          C       0.11640   0.95924   0.33708
C          C       0.04076   0.15716   0.33708
C          C       0.84284   0.88360   0.33708
N          N       0.88022   0.10289   0.11038
N          N       0.89711   0.77733   0.11038
N          N       0.22267   0.11978   0.11038
N          N       0.11978   0.89711   0.36039
N          N       0.10289   0.22267   0.36039
N          N       0.77733   0.88022   0.36039
C          C       0.86783   0.16018   0.13729
C          C       0.83982   0.70765   0.13729
C          C       0.29235   0.13217   0.13729
C          C       0.13217   0.83982   0.38729
C          C       0.16018   0.29235   0.38729
C          C       0.70765   0.86783   0.38729
C          C       0.85114   0.21435   0.18091
C          C       0.78565   0.63679   0.18091
C          C       0.36321   0.14886   0.18091
C          C       0.14886   0.78565   0.43091
C          C       0.21435   0.36321   0.43091
C          C       0.63679   0.85114   0.43091
C          C       0.93711   0.26042   0.26134
C          C       0.73958   0.67669   0.26134
C          C       0.32331   0.06289   0.26134
C          C       0.06289   0.73958   0.01134
C          C       0.26042   0.32331   0.01134
C          C       0.67669   0.93711   0.01134
H          H       0.99855   0.10123   0.14636
H          H       0.89877   0.89732   0.14636
H          H       0.10268   0.00145   0.14636
H          H       0.00145   0.89877   0.39636
H          H       0.10123   0.10268   0.39636
H          H       0.89732   0.99855   0.39636
H          H       0.85191   0.02388   0.07729
H          H       0.97612   0.82803   0.07729
H          H       0.17197   0.14809   0.07729
H          H       0.14809   0.97612   0.32729
H          H       0.02388   0.17197   0.32729
H          H       0.82803   0.85191   0.32729
C          C       0.94010   0.16989   0.11759
C          C       0.83011   0.77021   0.11759
C          C       0.22979   0.05990   0.11759
C          C       0.05990   0.83011   0.36759
C          C       0.16989   0.22979   0.36759
C          C       0.77021   0.94010   0.36759
H          H       0.91847   0.25803   0.31777
H          H       0.74197   0.66044   0.31777
H          H       0.33956   0.08153   0.31777
H          H       0.08153   0.74197   0.06777
H          H       0.25803   0.33956   0.06777
H          H       0.66044   0.91847   0.06777
H          H       0.96829   0.26774   0.28223
H          H       0.73226   0.70055   0.28223
H          H       0.29945   0.03171   0.28223
H          H       0.03171   0.73226   0.03222
H          H       0.26774   0.29945   0.03222
H          H       0.70055   0.96829   0.03222
C          C       0.03854   0.17289   0.06477
C          C       0.82711   0.86565   0.06477
C          C       0.13435   0.96146   0.06477
C          C       0.96146   0.82711   0.31478
C          C       0.17289   0.13435   0.31478
C          C       0.86565   0.03854   0.31478
C          C       0.09979   0.23589   0.11796
C          C       0.76411   0.86390   0.11796
C          C       0.13610   0.90021   0.11796
C          C       0.90021   0.76411   0.36796
C          C       0.23589   0.13610   0.36796
C          C       0.86390   0.09979   0.36796
C          C       0.02985   0.21722   0.16773
C          C       0.78278   0.81263   0.16773
C          C       0.18737   0.97015   0.16773
C          C       0.97015   0.78278   0.41773
C          C       0.21722   0.18737   0.41773
C          C       0.81263   0.02985   0.41773
H          H       0.02692   0.14781   0.02406
H          H       0.85219   0.87911   0.02406
H          H       0.12089   0.97308   0.02406
H          H       0.97308   0.85219   0.27406
H          H       0.14781   0.12089   0.27406
H          H       0.87911   0.02692   0.27406
H          H       0.13152   0.25568   0.11883
H          H       0.74432   0.87584   0.11883
H          H       0.12416   0.86848   0.11883
H          H       0.86848   0.74432   0.36883
H          H       0.25568   0.12416   0.36883
H          H       0.87584   0.13152   0.36883
H          H       0.01197   0.22435   0.20682
H          H       0.77565   0.78762   0.20682
H          H       0.21238   0.98803   0.20682
H          H       0.98803   0.77565   0.45682
H          H       0.22435   0.21238   0.45682
H          H       0.78762   0.01197   0.45682
C          C       0.69026   0.31241   0.74719
C          C       0.68759   0.37785   0.74719
C          C       0.62215   0.30974   0.74719
C          C       0.30974   0.68759   0.99719
C          C       0.31241   0.62215   0.99719
C          C       0.37785   0.69026   0.99719
C          C       0.71378   0.29186   0.74099
C          C       0.70814   0.42192   0.74099
C          C       0.57808   0.28622   0.74099
C          C       0.28622   0.70814   0.99099
C          C       0.29186   0.57808   0.99099
C          C       0.42192   0.71378   0.99099
C          C       0.73291   0.24655   0.65782
C          C       0.75345   0.48636   0.65782
C          C       0.51364   0.26709   0.65782
C          C       0.26709   0.75345   0.90782
C          C       0.24655   0.51364   0.90782
C          C       0.48636   0.73291   0.90782
C          C       0.76728   0.27722   0.79602
C          C       0.72278   0.49006   0.79602
C          C       0.50994   0.23272   0.79602
C          C       0.23272   0.72278   0.54603
C          C       0.27722   0.50994   0.54603
C          C       0.49006   0.76728   0.54603
N          N       0.78514   0.23289   0.71773
N          N       0.76711   0.55225   0.71773
N          N       0.44775   0.21486   0.71773
N          N       0.21486   0.76711   0.96773
N          N       0.23289   0.44775   0.96773
N          N       0.55225   0.78514   0.96773
C          C       0.80957   0.19057   0.65023
C          C       0.80943   0.61900   0.65023
C          C       0.38100   0.19043   0.65023
C          C       0.19043   0.80943   0.90023
C          C       0.19057   0.38100   0.90023
C          C       0.61900   0.80957   0.90023
C          C       0.82505   0.13524   0.61368
C          C       0.86476   0.68981   0.61368
C          C       0.31019   0.17495   0.61368
C          C       0.17495   0.86476   0.86369
C          C       0.13524   0.31019   0.86369
C          C       0.68981   0.82505   0.86369
C          C       0.73269   0.08161   0.57022
C          C       0.91839   0.65108   0.57022
C          C       0.34892   0.26731   0.57022
C          C       0.26731   0.91839   0.82022
C          C       0.08161   0.34892   0.82022
C          C       0.65108   0.73269   0.82022
H          H       0.68581   0.26128   0.62541
H          H       0.73872   0.42453   0.62541
H          H       0.57547   0.31419   0.62541
H          H       0.31419   0.73872   0.87541
H          H       0.26128   0.57547   0.87541
H          H       0.42453   0.68581   0.87541
H          H       0.78841   0.28110   0.84288
H          H       0.71890   0.50731   0.84288
H          H       0.49269   0.21159   0.84288
H          H       0.21159   0.71890   0.59289
H          H       0.28110   0.49269   0.59289
H          H       0.50731   0.78841   0.59289
C          C       0.75591   0.20337   0.58225
C          C       0.79663   0.55254   0.58225
C          C       0.44746   0.24409   0.58225
C          C       0.24409   0.79663   0.83225
C          C       0.20337   0.44746   0.83225
C          C       0.55254   0.75591   0.83225
H          H       0.73553   0.06082   0.61621
H          H       0.93918   0.67471   0.61621
H          H       0.32529   0.26447   0.61621
H          H       0.26447   0.93918   0.86621
H          H       0.06082   0.32529   0.86621
H          H       0.67471   0.73553   0.86621
H          H       0.69962   0.07182   0.56268
H          H       0.92818   0.62780   0.56268
H          H       0.37220   0.30038   0.56268
H          H       0.30038   0.92818   0.81268
H          H       0.07182   0.37220   0.81268
H          H       0.62780   0.69962   0.81268
C          C       0.70071   0.24736   0.97767
C          C       0.75264   0.45335   0.97767
C          C       0.54665   0.29929   0.97767
C          C       0.29929   0.75264   0.72767
C          C       0.24736   0.54665   0.72767
C          C       0.45335   0.70071   0.72767
H          H       0.75523   0.18656   0.52924
H          H       0.81344   0.56867   0.52924
H          H       0.43133   0.24477   0.52924
H          H       0.24477   0.81344   0.77924
H          H       0.18656   0.43133   0.77924
H          H       0.56867   0.75523   0.77924
C          C       0.95674   0.97659   0.60408
C          C       0.02341   0.98015   0.60408
C          C       0.01985   0.04326   0.60408
C          C       0.04326   0.02341   0.85408
C          C       0.97659   0.01985   0.85408
C          C       0.98015   0.95674   0.85408
C          C       0.96885   0.08499   0.62349
C          C       0.91501   0.88386   0.62349
C          C       0.11614   0.03115   0.62349
C          C       0.03115   0.91501   0.87349
C          C       0.08499   0.11614   0.87349
C          C       0.88386   0.96885   0.87349
C          C       0.90348   0.08396   0.60303
C          C       0.91604   0.81952   0.60303
C          C       0.18048   0.09652   0.60303
C          C       0.09652   0.91604   0.85303
C          C       0.08396   0.18048   0.85303
C          C       0.81952   0.90348   0.85303
C          C       0.90730   0.02054   0.58427
C          C       0.97946   0.88676   0.58427
C          C       0.11324   0.09270   0.58427
C          C       0.09270   0.97946   0.83427
C          C       0.02054   0.11324   0.83427
C          C       0.88676   0.90730   0.83427
C          C       0.89589   0.14469   0.62250
C          C       0.85531   0.75120   0.62250
C          C       0.24880   0.10411   0.62250
C          C       0.10411   0.85531   0.87250
C          C       0.14469   0.24880   0.87250
C          C       0.75120   0.89589   0.87250
C          C       0.87966   0.19926   0.67780
C          C       0.80074   0.68040   0.67780
C          C       0.31960   0.12034   0.67780
C          C       0.12034   0.80074   0.92780
C          C       0.19926   0.31960   0.92780
C          C       0.68040   0.87966   0.92780
O          O       0.91816   0.22147   0.71562
O          O       0.77853   0.69669   0.71562
O          O       0.30331   0.08184   0.71562
O          O       0.08184   0.77853   0.96563
O          O       0.22147   0.30331   0.96563
O          O       0.69669   0.91816   0.96563
H          H       0.92519   0.95963   0.60298
H          H       0.04037   0.96556   0.60298
H          H       0.03444   0.07481   0.60298
H          H       0.07481   0.04037   0.85298
H          H       0.95963   0.03444   0.85298
H          H       0.96556   0.92519   0.85298
C          C       0.96691   0.15247   0.61691
C          C       0.84753   0.81444   0.61691
C          C       0.18556   0.03309   0.61691
C          C       0.03309   0.84753   0.86690
C          C       0.15247   0.18556   0.86690
C          C       0.81444   0.96691   0.86690
H          H       0.89111   0.98972   0.56755
H          H       0.01028   0.90139   0.56755
H          H       0.09861   0.10889   0.56755
H          H       0.10889   0.01028   0.81755
H          H       0.98972   0.09861   0.81755
H          H       0.90139   0.89111   0.81755
H          H       0.86102   0.24347   0.70602
H          H       0.75653   0.61755   0.70602
H          H       0.38245   0.13898   0.70602
H          H       0.13898   0.75653   0.95602
H          H       0.24347   0.38245   0.95602
H          H       0.61755   0.86102   0.95602
H          H       0.94007   0.28560   0.71973
H          H       0.71440   0.65447   0.71973
H          H       0.34553   0.05993   0.71973
H          H       0.05993   0.71440   0.96973
H          H       0.28560   0.34553   0.96973
H          H       0.65447   0.94007   0.96973
C          C       0.01117   0.18028   0.61669
C          C       0.81972   0.83089   0.61669
C          C       0.16911   0.98883   0.61669
C          C       0.98883   0.81972   0.86669
C          C       0.18028   0.16911   0.86669
C          C       0.83089   0.01117   0.86669
C          C       0.08231   0.19937   0.56795
C          C       0.80063   0.88294   0.56795
C          C       0.11706   0.91769   0.56795
C          C       0.91769   0.80063   0.81796
C          C       0.19937   0.11706   0.81796
C          C       0.88294   0.08231   0.81796
C          C       0.07336   0.24514   0.66648
C          C       0.75486   0.82822   0.66648
C          C       0.17178   0.92664   0.66648
C          C       0.92664   0.75486   0.91648
C          C       0.24514   0.17178   0.91648
C          C       0.82822   0.07336   0.91648
H          H       0.95314   0.20163   0.61345
H          H       0.79837   0.75151   0.61345
H          H       0.24849   0.04686   0.61345
H          H       0.04686   0.79837   0.86346
H          H       0.20163   0.24849   0.86346
H          H       0.75151   0.95314   0.86346
H          H       0.10151   0.19226   0.53358
H          H       0.80774   0.90925   0.53358
H          H       0.09075   0.89849   0.53358
H          H       0.89849   0.80774   0.78358
H          H       0.19226   0.09075   0.78358
H          H       0.90925   0.10151   0.78358
H          H       0.08585   0.27218   0.70106
H          H       0.72782   0.81367   0.70106
H          H       0.18633   0.91415   0.70106
H          H       0.91415   0.72782   0.95106
H          H       0.27218   0.18633   0.95106
H          H       0.81367   0.08585   0.95106
H          H       0.44039   0.71616   0.75142
H          H       0.28384   0.72423   0.75142
H          H       0.27577   0.55961   0.75142
H          H       0.55961   0.28384   0.50143
H          H       0.71616   0.27577   0.50143
H          H       0.72423   0.44039   0.50143
C          C       0.71070   0.35666   0.74797
C          C       0.64334   0.35404   0.74797
C          C       0.64596   0.28930   0.74797
C          C       0.28930   0.64334   0.99797
C          C       0.35666   0.64596   0.99797
C          C       0.35404   0.71070   0.99797
C          C       0.70820   0.26581   0.66956
C          C       0.73419   0.44239   0.66956
C          C       0.55761   0.29180   0.66956
C          C       0.29180   0.73419   0.91957
C          C       0.26581   0.55761   0.91957
C          C       0.44239   0.70820   0.91957
C          C       0.76193   0.25200   0.72385
C          C       0.74800   0.50993   0.72385
C          C       0.49007   0.23807   0.72385
C          C       0.23807   0.74800   0.97386
C          C       0.25200   0.49007   0.97386
C          C       0.50993   0.76193   0.97386
C          C       0.74377   0.29753   0.80388
C          C       0.70247   0.44624   0.80388
C          C       0.55376   0.25623   0.80388
C          C       0.25623   0.70247   0.55388
C          C       0.29753   0.55376   0.55388
C          C       0.44624   0.74377   0.55388
C          C       0.78332   0.20847   0.65063
C          C       0.79153   0.57485   0.65063
C          C       0.42515   0.21668   0.65063
C          C       0.21668   0.79153   0.90063
C          C       0.20847   0.42515   0.90063
C          C       0.57485   0.78332   0.90063
C          C       0.79588   0.14933   0.62055
C          C       0.85067   0.64655   0.62055
C          C       0.35345   0.20412   0.62055
C          C       0.20412   0.85067   0.87055
C          C       0.14933   0.35345   0.87055
C          C       0.64655   0.79588   0.87055
O          O       0.75449   0.12396   0.60067
O          O       0.87604   0.63053   0.60067
O          O       0.36947   0.24551   0.60067
O          O       0.24551   0.87604   0.85067
O          O       0.12396   0.36947   0.85067
O          O       0.63053   0.75449   0.85067
H          H       0.74281   0.37371   0.74735
H          H       0.62629   0.36910   0.74735
H          H       0.63090   0.25719   0.74735
H          H       0.25719   0.62629   0.99735
H          H       0.37371   0.63090   0.99735
H          H       0.36910   0.74281   0.99735
C          C       0.73037   0.22203   0.58470
C          C       0.77797   0.50834   0.58470
C          C       0.49166   0.26963   0.58470
C          C       0.26963   0.77797   0.83470
C          C       0.22203   0.49166   0.83470
C          C       0.50834   0.73037   0.83470
H          H       0.74852   0.31627   0.85613
H          H       0.68373   0.43225   0.85613
H          H       0.56775   0.25148   0.85613
H          H       0.25148   0.68373   0.60613
H          H       0.31627   0.56775   0.60613
H          H       0.43225   0.74852   0.60613
H          H       0.81432   0.10566   0.59116
H          H       0.89434   0.70866   0.59116
H          H       0.29134   0.18568   0.59116
H          H       0.18568   0.89434   0.84116
H          H       0.10566   0.29134   0.84116
H          H       0.70866   0.81432   0.84116
H          H       0.74510   0.07938   0.50808
H          H       0.92062   0.66572   0.50808
H          H       0.33428   0.25490   0.50808
H          H       0.25490   0.92062   0.75808
H          H       0.07938   0.33428   0.75808
H          H       0.66572   0.74510   0.75808
H          H       0.70441   0.21584   0.51306
H          H       0.78416   0.48857   0.51306
H          H       0.51143   0.29559   0.51306
H          H       0.29559   0.78416   0.76306
H          H       0.21584   0.51143   0.76306
H          H       0.48857   0.70441   0.76306
O          O       0.68450   0.18076   0.97734
O          O       0.81924   0.50374   0.97734
O          O       0.49626   0.31550   0.97734
O          O       0.31550   0.81924   0.72733
O          O       0.18076   0.49626   0.72733
O          O       0.50374   0.68450   0.72733
C          C       0.97532   0.02086   0.60446
C          C       0.97914   0.95446   0.60446
C          C       0.04554   0.02468   0.60446
C          C       0.02468   0.97914   0.85446
C          C       0.02086   0.04554   0.85446
C          C       0.95446   0.97532   0.85446
C          C       0.95089   0.04153   0.60417
C          C       0.95847   0.90936   0.60417
C          C       0.09064   0.04911   0.60417
C          C       0.04911   0.95847   0.85416
C          C       0.04153   0.09064   0.85416
C          C       0.90936   0.95089   0.85416
C          C       0.94746   0.10777   0.61427
C          C       0.89223   0.83969   0.61427
C          C       0.16031   0.05254   0.61427
C          C       0.05254   0.89223   0.86426
C          C       0.10777   0.16031   0.86426
C          C       0.83969   0.94746   0.86426
C          C       0.88360   0.04076   0.58708
C          C       0.95924   0.84284   0.58708
C          C       0.15716   0.11640   0.58708
C          C       0.11640   0.95924   0.83709
C          C       0.04076   0.15716   0.83709
C          C       0.84284   0.88360   0.83709
N          N       0.88022   0.10289   0.61039
N          N       0.89711   0.77733   0.61039
N          N       0.22267   0.11978   0.61039
N          N       0.11978   0.89711   0.86038
N          N       0.10289   0.22267   0.86038
N          N       0.77733   0.88022   0.86038
C          C       0.86783   0.16018   0.63729
C          C       0.83982   0.70765   0.63729
C          C       0.29235   0.13217   0.63729
C          C       0.13217   0.83982   0.88729
C          C       0.16018   0.29235   0.88729
C          C       0.70765   0.86783   0.88729
C          C       0.85114   0.21435   0.68091
C          C       0.78565   0.63679   0.68091
C          C       0.36321   0.14886   0.68091
C          C       0.14886   0.78565   0.93091
C          C       0.21435   0.36321   0.93091
C          C       0.63679   0.85114   0.93091
C          C       0.93711   0.26042   0.76134
C          C       0.73958   0.67669   0.76134
C          C       0.32331   0.06289   0.76134
C          C       0.06289   0.73958   0.51134
C          C       0.26042   0.32331   0.51134
C          C       0.67669   0.93711   0.51134
H          H       0.99855   0.10123   0.64636
H          H       0.89877   0.89732   0.64636
H          H       0.10268   0.00145   0.64636
H          H       0.00145   0.89877   0.89636
H          H       0.10123   0.10268   0.89636
H          H       0.89732   0.99855   0.89636
H          H       0.85191   0.02388   0.57729
H          H       0.97612   0.82803   0.57729
H          H       0.17197   0.14809   0.57729
H          H       0.14809   0.97612   0.82729
H          H       0.02388   0.17197   0.82729
H          H       0.82803   0.85191   0.82729
C          C       0.94010   0.16989   0.61759
C          C       0.83011   0.77021   0.61759
C          C       0.22979   0.05990   0.61759
C          C       0.05990   0.83011   0.86759
C          C       0.16989   0.22979   0.86759
C          C       0.77021   0.94010   0.86759
H          H       0.91847   0.25803   0.81778
H          H       0.74197   0.66044   0.81778
H          H       0.33956   0.08153   0.81778
H          H       0.08153   0.74197   0.56777
H          H       0.25803   0.33956   0.56777
H          H       0.66044   0.91847   0.56777
H          H       0.96829   0.26774   0.78223
H          H       0.73226   0.70055   0.78223
H          H       0.29945   0.03171   0.78223
H          H       0.03171   0.73226   0.53222
H          H       0.26774   0.29945   0.53222
H          H       0.70055   0.96829   0.53222
C          C       0.03854   0.17289   0.56478
C          C       0.82711   0.86565   0.56478
C          C       0.13435   0.96146   0.56478
C          C       0.96146   0.82711   0.81478
C          C       0.17289   0.13435   0.81478
C          C       0.86565   0.03854   0.81478
C          C       0.09979   0.23589   0.61796
C          C       0.76411   0.86390   0.61796
C          C       0.13610   0.90021   0.61796
C          C       0.90021   0.76411   0.86796
C          C       0.23589   0.13610   0.86796
C          C       0.86390   0.09979   0.86796
C          C       0.02985   0.21722   0.66773
C          C       0.78278   0.81263   0.66773
C          C       0.18737   0.97015   0.66773
C          C       0.97015   0.78278   0.91773
C          C       0.21722   0.18737   0.91773
C          C       0.81263   0.02985   0.91773
H          H       0.02692   0.14781   0.52406
H          H       0.85219   0.87911   0.52406
H          H       0.12089   0.97308   0.52406
H          H       0.97308   0.85219   0.77406
H          H       0.14781   0.12089   0.77406
H          H       0.87911   0.02692   0.77406
H          H       0.13152   0.25568   0.61882
H          H       0.74432   0.87584   0.61882
H          H       0.12416   0.86848   0.61882
H          H       0.86848   0.74432   0.86882
H          H       0.25568   0.12416   0.86882
H          H       0.87584   0.13152   0.86882
H          H       0.01197   0.22435   0.70682
H          H       0.77565   0.78762   0.70682
H          H       0.21238   0.98803   0.70682
H          H       0.98803   0.77565   0.95682
H          H       0.22435   0.21238   0.95682
H          H       0.78762   0.01197   0.95682
