data_crystal

_cell_length_a    30.77900
_cell_length_b    30.77900
_cell_length_c    8.66200
_cell_angle_alpha 90.00000
_cell_angle_beta  90.00000
_cell_angle_gamma 120.00000

_space_group_name_Hall 'P 1'
_space_group_name_H-M_alt 'P 1'

loop_
_symmetry_equiv_pos_as_xyz
 'x,y,z'

loop_
_atom_site_label
_atom_site_type_symbol
_atom_site_fract_x
_atom_site_fract_y
_atom_site_fract_z
C          C       0.94662   0.98559   0.27581
C          C       0.01441   0.96103   0.27581
C          C       0.03897   0.05338   0.27581
C          C       0.87034   0.71970   0.18454
C          C       0.28030   0.15064   0.18454
C          C       0.84936   0.12966   0.18454
C          C       0.82563   0.70156   0.09768
C          C       0.29844   0.12407   0.09768
C          C       0.87593   0.17437   0.09768
C          C       0.79036   0.65033   0.09889
C          C       0.34967   0.14003   0.09889
C          C       0.85997   0.20964   0.09889
C          C       0.79905   0.61578   0.17910
C          C       0.38422   0.18327   0.17910
C          C       0.81673   0.20095   0.17910
C          C       0.84385   0.63312   0.26420
C          C       0.36688   0.21073   0.26420
C          C       0.78927   0.15615   0.26420
C          C       0.87877   0.68522   0.26689
C          C       0.31478   0.19355   0.26689
C          C       0.80645   0.12123   0.26689
O          O       0.85065   0.59740   0.34708
O          O       0.40260   0.25325   0.34708
O          O       0.74675   0.14935   0.34708
C          C       0.89516   0.61227   0.43558
C          C       0.38773   0.28289   0.43558
C          C       0.71711   0.10484   0.43558
C          C       0.94006   0.62242   0.33381
C          C       0.37758   0.31764   0.33381
C          C       0.68236   0.05994   0.33381
C          C       0.98477   0.63162   0.43472
C          C       0.36838   0.35315   0.43472
C          C       0.64685   0.01523   0.43472
O          O       0.81543   0.73234   0.00382
O          O       0.26766   0.08309   0.00382
O          O       0.91691   0.18457   0.00382
C          C       0.75966   0.56178   0.17553
C          C       0.43822   0.19788   0.17553
C          C       0.80212   0.24034   0.17553
N          N       0.77159   0.52464   0.16104
N          N       0.47536   0.24695   0.16104
N          N       0.75305   0.22841   0.16104
O          O       0.71567   0.55058   0.18294
O          O       0.44942   0.16509   0.18294
O          O       0.83491   0.28433   0.18294
N          N       0.73376   0.47383   0.16132
N          N       0.52617   0.25993   0.16132
N          N       0.74007   0.26624   0.16132
C          C       0.74414   0.43787   0.15215
C          C       0.56213   0.30627   0.15215
C          C       0.69373   0.25586   0.15215
C          C       0.70410   0.38447   0.15260
C          C       0.61553   0.31963   0.15260
C          C       0.68037   0.29590   0.15260
C          C       0.65303   0.37045   0.15255
C          C       0.62955   0.28258   0.15255
C          C       0.71742   0.34697   0.15255
O          O       0.95317   0.78608   0.18777
O          O       0.21392   0.16709   0.18777
O          O       0.83291   0.04683   0.18777
N          N       0.89590   0.80984   0.22045
N          N       0.19016   0.08606   0.22045
N          N       0.91394   0.10410   0.22045
N          N       0.93298   0.85985   0.24989
N          N       0.14015   0.07313   0.24989
N          N       0.92687   0.06702   0.24989
C          C       0.92165   0.89448   0.27753
C          C       0.10552   0.02717   0.27753
C          C       0.97283   0.07835   0.27753
C          C       0.96090   0.94651   0.32876
C          C       0.05349   0.01439   0.32876
C          C       0.98561   0.03910   0.32876
C          C       0.90891   0.77389   0.19493
C          C       0.22611   0.13502   0.19493
C          C       0.86498   0.09109   0.19493
C          C       0.03279   0.64824   0.34031
C          C       0.35176   0.38455   0.34031
C          C       0.61545   0.96721   0.34031
C          C       0.07488   0.65150   0.44666
C          C       0.34850   0.42338   0.44666
C          C       0.57662   0.92512   0.44666
N          N       0.12604   0.67216   0.37526
N          N       0.32784   0.45388   0.37526
N          N       0.54612   0.87396   0.37526
C          C       0.16800   0.68166   0.47978
C          C       0.31834   0.48634   0.47978
C          C       0.51366   0.83200   0.47978
H          H       0.90954   0.97553   0.32662
H          H       0.02447   0.93401   0.32662
H          H       0.06599   0.09046   0.32662
H          H       0.75634   0.63712   0.03173
H          H       0.36288   0.11922   0.03173
H          H       0.88078   0.24366   0.03173
H          H       0.88730   0.58049   0.01313
H          H       0.41951   0.30681   0.01313
H          H       0.69319   0.11270   0.01313
H          H       0.90384   0.64468   0.01106
H          H       0.35532   0.25916   0.01106
H          H       0.74084   0.09616   0.01106
H          H       0.95081   0.65564   0.25985
H          H       0.34436   0.29517   0.25985
H          H       0.70483   0.04919   0.25985
H          H       0.92951   0.58938   0.25860
H          H       0.41062   0.34013   0.25860
H          H       0.65987   0.07049   0.25860
H          H       0.97492   0.59647   0.49825
H          H       0.40353   0.37845   0.49825
H          H       0.62155   0.02508   0.49825
H          H       0.99218   0.66150   0.02014
H          H       0.33850   0.33068   0.02014
H          H       0.66932   0.00782   0.02014
H          H       0.84505   0.76682   0.48462
H          H       0.23318   0.07823   0.48462
H          H       0.92177   0.15495   0.48462
H          H       0.80892   0.53397   0.14566
H          H       0.46603   0.27495   0.14566
H          H       0.72505   0.19108   0.14566
H          H       0.78295   0.44690   0.14524
H          H       0.55310   0.33605   0.14524
H          H       0.66395   0.21705   0.14524
H          H       0.64232   0.39905   0.15231
H          H       0.60095   0.24327   0.15231
H          H       0.75673   0.35768   0.15231
H          H       0.85804   0.79944   0.22928
H          H       0.20056   0.05860   0.22928
H          H       0.94140   0.14196   0.22928
H          H       0.88260   0.88476   0.27970
H          H       0.11524   0.99784   0.27970
H          H       0.00216   0.11740   0.27970
H          H       0.04308   0.68506   0.28852
H          H       0.31494   0.35802   0.28852
H          H       0.64198   0.95692   0.28852
H          H       0.02459   0.62031   0.24769
H          H       0.37969   0.40428   0.24769
H          H       0.59572   0.97541   0.24769
H          H       0.05958   0.61201   0.48422
H          H       0.38799   0.44757   0.48422
H          H       0.55243   0.94042   0.48422
H          H       0.07637   0.67415   0.04515
H          H       0.32585   0.40222   0.04515
H          H       0.59778   0.92363   0.04515
C          C       0.14134   0.72281   0.31028
C          C       0.27719   0.41853   0.31028
C          C       0.58147   0.85866   0.31028
C          C       0.12340   0.63207   0.27491
C          C       0.36793   0.49133   0.27491
C          C       0.50867   0.87660   0.27491
H          H       0.29843   0.50329   0.41893
H          H       0.49671   0.79514   0.41893
H          H       0.20486   0.70157   0.41893
H          H       0.35332   0.52053   0.01426
H          H       0.47947   0.83279   0.01426
H          H       0.16721   0.64668   0.01426
H          H       0.29332   0.46569   0.07298
H          H       0.53431   0.82763   0.07298
H          H       0.17237   0.70668   0.07298
H          H       0.40445   0.51134   0.33731
H          H       0.48866   0.89311   0.33731
H          H       0.10689   0.59555   0.33731
H          H       0.36181   0.52279   0.24388
H          H       0.47721   0.83902   0.24388
H          H       0.16098   0.63819   0.24388
H          H       0.37583   0.47457   0.17974
H          H       0.52543   0.90126   0.17974
H          H       0.09874   0.62417   0.17974
H          H       0.27742   0.39783   0.20866
H          H       0.60217   0.87959   0.20866
H          H       0.12041   0.72258   0.20866
H          H       0.25459   0.43652   0.28142
H          H       0.56348   0.81807   0.28142
H          H       0.18193   0.74541   0.28142
H          H       0.25413   0.38951   0.39772
H          H       0.61049   0.86462   0.39772
H          H       0.13538   0.74587   0.39772
H          H       0.94249   0.98450   0.14875
H          H       0.01550   0.95799   0.14875
H          H       0.04201   0.05751   0.14875
H          H       0.91263   0.69998   0.33483
H          H       0.30002   0.21265   0.33483
H          H       0.78735   0.08737   0.33483
H          H       0.96023   0.94568   0.45637
H          H       0.05432   0.01455   0.45637
H          H       0.98545   0.03977   0.45637
C          C       0.94662   0.98559   0.77581
C          C       0.01441   0.96103   0.77581
C          C       0.03897   0.05338   0.77581
C          C       0.87034   0.71970   0.68454
C          C       0.28030   0.15064   0.68454
C          C       0.84936   0.12966   0.68454
C          C       0.82563   0.70156   0.59768
C          C       0.29844   0.12407   0.59768
C          C       0.87593   0.17437   0.59768
C          C       0.79036   0.65033   0.59889
C          C       0.34967   0.14003   0.59889
C          C       0.85997   0.20964   0.59889
C          C       0.79905   0.61578   0.67910
C          C       0.38422   0.18327   0.67910
C          C       0.81673   0.20095   0.67910
C          C       0.84385   0.63312   0.76420
C          C       0.36688   0.21073   0.76420
C          C       0.78927   0.15615   0.76420
C          C       0.87877   0.68522   0.76689
C          C       0.31478   0.19355   0.76689
C          C       0.80645   0.12123   0.76689
O          O       0.85065   0.59740   0.84708
O          O       0.40260   0.25325   0.84708
O          O       0.74675   0.14935   0.84708
C          C       0.89516   0.61227   0.93558
C          C       0.38773   0.28289   0.93558
C          C       0.71711   0.10484   0.93558
C          C       0.94006   0.62242   0.83381
C          C       0.37758   0.31764   0.83381
C          C       0.68236   0.05994   0.83381
C          C       0.98477   0.63162   0.93472
C          C       0.36838   0.35315   0.93472
C          C       0.64685   0.01523   0.93472
O          O       0.81543   0.73234   0.50382
O          O       0.26766   0.08309   0.50382
O          O       0.91691   0.18457   0.50382
C          C       0.75966   0.56178   0.67553
C          C       0.43822   0.19788   0.67553
C          C       0.80212   0.24034   0.67553
N          N       0.77159   0.52464   0.66104
N          N       0.47536   0.24695   0.66104
N          N       0.75305   0.22841   0.66104
O          O       0.71567   0.55058   0.68294
O          O       0.44942   0.16509   0.68294
O          O       0.83491   0.28433   0.68294
N          N       0.73376   0.47383   0.66133
N          N       0.52617   0.25993   0.66133
N          N       0.74007   0.26624   0.66133
C          C       0.74414   0.43787   0.65215
C          C       0.56213   0.30627   0.65215
C          C       0.69373   0.25586   0.65215
C          C       0.70410   0.38447   0.65260
C          C       0.61553   0.31963   0.65260
C          C       0.68037   0.29590   0.65260
C          C       0.65303   0.37045   0.65255
C          C       0.62955   0.28258   0.65255
C          C       0.71742   0.34697   0.65255
O          O       0.95317   0.78608   0.68777
O          O       0.21392   0.16709   0.68777
O          O       0.83291   0.04683   0.68777
N          N       0.89590   0.80984   0.72045
N          N       0.19016   0.08606   0.72045
N          N       0.91394   0.10410   0.72045
N          N       0.93298   0.85985   0.74988
N          N       0.14015   0.07313   0.74988
N          N       0.92687   0.06702   0.74988
C          C       0.92165   0.89448   0.77753
C          C       0.10552   0.02717   0.77753
C          C       0.97283   0.07835   0.77753
C          C       0.96090   0.94651   0.82876
C          C       0.05349   0.01439   0.82876
C          C       0.98561   0.03910   0.82876
C          C       0.90891   0.77389   0.69493
C          C       0.22611   0.13502   0.69493
C          C       0.86498   0.09109   0.69493
C          C       0.03279   0.64824   0.84032
C          C       0.35176   0.38455   0.84032
C          C       0.61545   0.96721   0.84032
C          C       0.07488   0.65150   0.94666
C          C       0.34850   0.42338   0.94666
C          C       0.57662   0.92512   0.94666
N          N       0.12604   0.67216   0.87526
N          N       0.32784   0.45388   0.87526
N          N       0.54612   0.87396   0.87526
C          C       0.16800   0.68166   0.97978
C          C       0.31834   0.48634   0.97978
C          C       0.51366   0.83200   0.97978
H          H       0.90954   0.97553   0.82662
H          H       0.02447   0.93401   0.82662
H          H       0.06599   0.09046   0.82662
H          H       0.75634   0.63712   0.53173
H          H       0.36288   0.11922   0.53173
H          H       0.88078   0.24366   0.53173
H          H       0.88730   0.58049   0.51313
H          H       0.41951   0.30681   0.51313
H          H       0.69319   0.11270   0.51313
H          H       0.90384   0.64468   0.51106
H          H       0.35532   0.25916   0.51106
H          H       0.74084   0.09616   0.51106
H          H       0.95081   0.65564   0.75985
H          H       0.34436   0.29517   0.75985
H          H       0.70483   0.04919   0.75985
H          H       0.92951   0.58938   0.75860
H          H       0.41062   0.34013   0.75860
H          H       0.65987   0.07049   0.75860
H          H       0.97492   0.59647   0.99825
H          H       0.40353   0.37845   0.99825
H          H       0.62155   0.02508   0.99825
H          H       0.99218   0.66150   0.52014
H          H       0.33850   0.33068   0.52014
H          H       0.66932   0.00782   0.52014
H          H       0.84505   0.76682   0.98462
H          H       0.23318   0.07823   0.98462
H          H       0.92177   0.15495   0.98462
H          H       0.80892   0.53397   0.64565
H          H       0.46603   0.27495   0.64565
H          H       0.72505   0.19108   0.64565
H          H       0.78295   0.44690   0.64524
H          H       0.55310   0.33605   0.64524
H          H       0.66395   0.21705   0.64524
H          H       0.64232   0.39905   0.65231
H          H       0.60095   0.24327   0.65231
H          H       0.75673   0.35768   0.65231
H          H       0.85804   0.79944   0.72928
H          H       0.20056   0.05860   0.72928
H          H       0.94140   0.14196   0.72928
H          H       0.88260   0.88476   0.77970
H          H       0.11524   0.99784   0.77970
H          H       0.00216   0.11740   0.77970
H          H       0.04308   0.68506   0.78852
H          H       0.31494   0.35802   0.78852
H          H       0.64198   0.95692   0.78852
H          H       0.02459   0.62031   0.74769
H          H       0.37969   0.40428   0.74769
H          H       0.59572   0.97541   0.74769
H          H       0.05958   0.61201   0.98422
H          H       0.38799   0.44757   0.98422
H          H       0.55243   0.94042   0.98422
H          H       0.07637   0.67415   0.54515
H          H       0.32585   0.40222   0.54515
H          H       0.59778   0.92363   0.54515
C          C       0.14134   0.72281   0.81028
C          C       0.27719   0.41853   0.81028
C          C       0.58147   0.85866   0.81028
C          C       0.12340   0.63207   0.77490
C          C       0.36793   0.49133   0.77490
C          C       0.50867   0.87660   0.77490
H          H       0.29843   0.50329   0.91893
H          H       0.49671   0.79514   0.91893
H          H       0.20486   0.70157   0.91893
H          H       0.35332   0.52053   0.51426
H          H       0.47947   0.83279   0.51426
H          H       0.16721   0.64668   0.51426
H          H       0.29332   0.46569   0.57298
H          H       0.53431   0.82763   0.57298
H          H       0.17237   0.70668   0.57298
H          H       0.40445   0.51134   0.83731
H          H       0.48866   0.89311   0.83731
H          H       0.10689   0.59555   0.83731
H          H       0.36181   0.52279   0.74389
H          H       0.47721   0.83902   0.74389
H          H       0.16098   0.63819   0.74389
H          H       0.37583   0.47457   0.67974
H          H       0.52543   0.90126   0.67974
H          H       0.09874   0.62417   0.67974
H          H       0.27742   0.39783   0.70866
H          H       0.60217   0.87959   0.70866
H          H       0.12041   0.72258   0.70866
H          H       0.25459   0.43652   0.78143
H          H       0.56348   0.81807   0.78143
H          H       0.18193   0.74541   0.78143
H          H       0.25413   0.38951   0.89772
H          H       0.61049   0.86462   0.89772
H          H       0.13538   0.74587   0.89772
H          H       0.94249   0.98450   0.64875
H          H       0.01550   0.95799   0.64875
H          H       0.04201   0.05751   0.64875
H          H       0.91263   0.69998   0.83483
H          H       0.30002   0.21265   0.83483
H          H       0.78735   0.08737   0.83483
H          H       0.96023   0.94568   0.95637
H          H       0.05432   0.01455   0.95637
H          H       0.98545   0.03977   0.95637
