data_crystal

_cell_length_a    75.85310
_cell_length_b    75.90080
_cell_length_c    14.11100
_cell_angle_alpha 90.00000
_cell_angle_beta  90.00000
_cell_angle_gamma 119.96300

_space_group_name_Hall 'P 1'
_space_group_name_H-M_alt 'P 1'

loop_
_symmetry_equiv_pos_as_xyz
 'x,y,z'

loop_
_atom_site_label
_atom_site_type_symbol
_atom_site_fract_x
_atom_site_fract_y
_atom_site_fract_z
C          C       0.00927   0.48697   0.19066
C          C       0.02186   0.50800   0.18098
C          C       0.01327   0.52069   0.17581
C          C       0.04348   0.51630   0.17183
C          C       0.06159   0.52344   0.16368
C          C       0.08322   0.53221   0.15382
C          C       0.09182   0.51968   0.14753
C          C       0.11289   0.52827   0.13828
C          C       0.12556   0.54948   0.13511
C          C       0.11678   0.56198   0.14122
C          C       0.09573   0.55336   0.15054
C          C       0.14776   0.55822   0.12585
C          C       0.49093   0.01182   0.15067
C          C       0.52060   0.00762   0.13548
C          C       0.51201   0.02038   0.14125
C          C       0.52443   0.04213   0.13320
C          C       0.53497   0.06032   0.12668
C          C       0.54778   0.08200   0.11939
C          C       0.56883   0.09048   0.10937
C          C       0.58139   0.11157   0.10376
C          C       0.57304   0.12440   0.10808
C          C       0.55184   0.11576   0.11762
C          C       0.53930   0.09466   0.12326
C          C       0.58669   0.14662   0.10336
N          N       0.57947   0.15893   0.10826
N          N       0.15983   0.57781   0.12412
N          N       0.32279   0.67612   0.08922
C          C       0.31267   0.65547   0.08790
C          C       0.35433   0.70936   0.08957
C          C       0.37516   0.72066   0.06789
C          C       0.38544   0.74189   0.07040
C          C       0.37520   0.75235   0.09587
C          C       0.35435   0.74099   0.11782
C          C       0.34401   0.71977   0.11408
C          C       0.38621   0.77497   0.10011
C          C       0.40668   0.78591   0.12912
C          C       0.41698   0.80712   0.13317
C          C       0.40706   0.81790   0.11000
C          C       0.38666   0.80709   0.07993
C          C       0.37638   0.78587   0.07501
N          N       0.64629   0.32228   0.11110
C          C       0.65657   0.31190   0.10966
C          C       0.64513   0.35410   0.11592
C          C       0.65497   0.37495   0.09466
C          C       0.64425   0.38548   0.09631
C          C       0.62349   0.37549   0.12067
C          C       0.61372   0.35463   0.14249
C          C       0.62437   0.34403   0.13944
C          C       0.61210   0.38675   0.12351
C          C       0.62176   0.40724   0.15212
C          C       0.61105   0.41778   0.15448
C          C       0.59044   0.40808   0.13001
C          C       0.58072   0.38765   0.10043
C          C       0.59146   0.37714   0.09723
O          O       0.51606   0.97377   0.12227
O          O       0.98317   0.52382   0.16226
C          C       0.44585   0.48463   0.17736
C          C       0.46838   0.44615   0.20312
C          C       0.51216   0.52047   0.14257
C          C       0.49111   0.51182   0.13124
C          C       0.47861   0.49046   0.12629
C          C       0.48275   0.52508   0.12032
C          C       0.47566   0.53608   0.11141
C          C       0.46700   0.54905   0.10134
C          C       0.47962   0.56998   0.08798
C          C       0.47116   0.58260   0.07982
C          C       0.45000   0.57440   0.08489
C          C       0.43741   0.55332   0.09770
C          C       0.44589   0.54074   0.10590
C          C       0.44141   0.58804   0.07771
C          C       0.98781   0.47766   0.19211
C          C       0.99162   0.51130   0.17716
C          C       0.97908   0.49004   0.18384
C          C       0.95730   0.48072   0.17769
C          C       0.93909   0.47310   0.17206
C          C       0.91739   0.46425   0.16517
C          C       0.90875   0.47678   0.16498
C          C       0.88766   0.46824   0.15849
C          C       0.87498   0.44707   0.15219
C          C       0.88377   0.43456   0.15224
C          C       0.90488   0.44314   0.15865
C          C       0.85274   0.43844   0.14594
N          N       0.84056   0.41889   0.14296
N          N       0.42189   0.58082   0.08388
N          N       0.32342   0.64557   0.08443
C          C       0.34408   0.65611   0.08221
C          C       0.29018   0.64391   0.09106
C          C       0.27889   0.65351   0.07068
C          C       0.25765   0.64261   0.07367
C          C       0.24718   0.62189   0.09852
C          C       0.25854   0.61234   0.11936
C          C       0.27978   0.62318   0.11497
C          C       0.22454   0.61033   0.10334
C          C       0.21367   0.61988   0.13316
C          C       0.19245   0.60898   0.13848
C          C       0.18161   0.58829   0.11569
C          C       0.19235   0.57870   0.08443
C          C       0.21357   0.58963   0.07828
N          N       0.67724   0.32237   0.11116
C          C       0.68761   0.34302   0.11391
C          C       0.64535   0.28941   0.10716
C          C       0.62458   0.27865   0.08384
C          C       0.61397   0.25741   0.08165
C          C       0.62381   0.24640   0.10398
C          C       0.64460   0.25722   0.12762
C          C       0.65527   0.27846   0.12857
C          C       0.61245   0.22377   0.10323
C          C       0.59191   0.21284   0.13112
C          C       0.58135   0.19160   0.13135
C          C       0.59105   0.18077   0.10515
C          C       0.61152   0.19161   0.07589
C          C       0.62206   0.21286   0.07495
O          O       0.02555   0.54162   0.15987
O          O       0.47543   0.45712   0.11646
C          C       0.52074   0.96733   0.20886
C          C       0.55492   0.02895   0.19062
C          C       0.47829   0.99076   0.15194
C          C       0.48656   0.97802   0.14339
C          C       0.50774   0.98641   0.13579
C          C       0.47324   0.95633   0.14034
C          C       0.46227   0.93816   0.13728
C          C       0.44940   0.91645   0.13312
C          C       0.42822   0.90776   0.13290
C          C       0.41574   0.88664   0.12823
C          C       0.42431   0.87400   0.12367
C          C       0.44563   0.88285   0.12403
C          C       0.45807   0.90397   0.12873
C          C       0.41085   0.85175   0.11840
C          C       0.52094   0.50815   0.14691
C          C       0.48758   0.47814   0.12959
C          C       0.50877   0.48704   0.13958
C          C       0.51815   0.47459   0.14024
C          C       0.52578   0.46398   0.14042
C          C       0.53468   0.45112   0.14011
C          C       0.52215   0.42997   0.14202
C          C       0.53073   0.41742   0.14066
C          C       0.55194   0.42588   0.13739
C          C       0.56445   0.44716   0.13575
C          C       0.55583   0.45970   0.13709
C          C       0.56061   0.41229   0.13526
N          N       0.58019   0.41967   0.13359
N          N       0.41840   0.83971   0.11593
N          N       0.35398   0.67676   0.08370
C          C       0.34344   0.68687   0.08716
C          C       0.35568   0.64520   0.07923
C          C       0.34597   0.62445   0.05588
C          C       0.35689   0.61412   0.05367
C          C       0.37775   0.62422   0.07600
C          C       0.38743   0.64500   0.09945
C          C       0.37656   0.65539   0.10043
C          C       0.38930   0.61311   0.07580
C          C       0.37992   0.59262   0.10403
C          C       0.39085   0.58230   0.10505
C          C       0.41140   0.59218   0.07938
C          C       0.42083   0.61261   0.04985
C          C       0.40986   0.62291   0.04802
N          N       0.67711   0.35319   0.11523
C          C       0.65645   0.34292   0.11386
C          C       0.71013   0.35432   0.11620
C          C       0.72116   0.34451   0.09459
C          C       0.74241   0.35517   0.09701
C          C       0.75315   0.37586   0.12230
C          C       0.74205   0.38564   0.14411
C          C       0.72081   0.37503   0.14049
C          C       0.77579   0.38716   0.12654
C          C       0.78648   0.37738   0.15570
C          C       0.80772   0.38802   0.15982
C          C       0.81875   0.40868   0.13663
C          C       0.80818   0.41852   0.10637
C          C       0.78694   0.40784   0.10135
O          O       0.45760   0.48110   0.10868
O          O       0.54149   0.01539   0.11991
C          C       0.03558   0.55295   0.24285
C          C       0.97543   0.52799   0.24622
C          C       0.00834   0.48365   0.42445
C          C       0.02095   0.50498   0.43048
C          C       0.01225   0.51733   0.44108
C          C       0.04271   0.51451   0.42108
C          C       0.06091   0.52237   0.41309
C          C       0.08260   0.53156   0.40353
C          C       0.09150   0.51929   0.39778
C          C       0.11258   0.52815   0.38885
C          C       0.12500   0.54938   0.38553
C          C       0.11595   0.56163   0.39113
C          C       0.09485   0.55273   0.40008
C          C       0.14724   0.55834   0.37666
C          C       0.48863   0.01216   0.38494
C          C       0.51858   0.00847   0.40132
C          C       0.50999   0.02095   0.39128
C          C       0.52332   0.04259   0.38326
C          C       0.53442   0.06070   0.37674
C          C       0.54751   0.08234   0.36950
C          C       0.56853   0.09062   0.35920
C          C       0.58127   0.11169   0.35346
C          C       0.57311   0.12469   0.35793
C          C       0.55195   0.11625   0.36781
C          C       0.53925   0.09518   0.37358
C          C       0.58686   0.14690   0.35296
N          N       0.57969   0.15924   0.35849
N          N       0.15918   0.57794   0.37465
N          N       0.32218   0.67646   0.33924
C          C       0.31202   0.65581   0.33765
C          C       0.35384   0.70965   0.33993
C          C       0.37469   0.72083   0.31830
C          C       0.38509   0.74206   0.32082
C          C       0.37496   0.75264   0.34620
C          C       0.35411   0.74139   0.36820
C          C       0.34365   0.72017   0.36451
C          C       0.38610   0.77526   0.35018
C          C       0.40658   0.78611   0.37911
C          C       0.41698   0.80733   0.38304
C          C       0.40716   0.81819   0.35981
C          C       0.38675   0.80747   0.32970
C          C       0.37638   0.78624   0.32489
N          N       0.64563   0.32253   0.36108
C          C       0.65597   0.31220   0.35956
C          C       0.64440   0.35433   0.36616
C          C       0.65423   0.37519   0.34504
C          C       0.64350   0.38572   0.34668
C          C       0.62273   0.37571   0.37078
C          C       0.61296   0.35484   0.39245
C          C       0.62363   0.34425   0.38951
C          C       0.61133   0.38697   0.37349
C          C       0.62098   0.40746   0.40211
C          C       0.61028   0.41800   0.40438
C          C       0.58967   0.40832   0.37992
C          C       0.57995   0.38789   0.35035
C          C       0.59069   0.37737   0.34710
O          O       0.01634   0.47073   0.40851
O          O       0.47935   0.02394   0.36901
C          C       0.51426   0.52310   0.37915
C          C       0.49287   0.51438   0.38164
C          C       0.48041   0.49334   0.39126
C          C       0.48343   0.52665   0.37013
C          C       0.47566   0.53705   0.36095
C          C       0.46663   0.54967   0.35076
C          C       0.47903   0.57065   0.33772
C          C       0.47035   0.58305   0.32986
C          C       0.44916   0.57461   0.33491
C          C       0.43676   0.55349   0.34734
C          C       0.44548   0.54110   0.35524
C          C       0.44042   0.58811   0.32819
C          C       0.98670   0.47427   0.42580
C          C       0.99079   0.50802   0.44252
C          C       0.97813   0.48701   0.43328
C          C       0.95649   0.47892   0.42678
C          C       0.93837   0.47203   0.42123
C          C       0.91672   0.46358   0.41458
C          C       0.90836   0.47637   0.41422
C          C       0.88729   0.46810   0.40786
C          C       0.87437   0.44696   0.40182
C          C       0.88289   0.43421   0.40214
C          C       0.90395   0.44251   0.40847
C          C       0.85217   0.43854   0.39538
N          N       0.83988   0.41901   0.39248
N          N       0.42089   0.58079   0.33397
N          N       0.32272   0.64586   0.33411
C          C       0.34338   0.65634   0.33205
C          C       0.28953   0.64425   0.34075
C          C       0.27822   0.65384   0.32049
C          C       0.25698   0.64291   0.32370
C          C       0.24653   0.62219   0.34855
C          C       0.25792   0.61265   0.36910
C          C       0.27915   0.62351   0.36456
C          C       0.22391   0.61061   0.35378
C          C       0.21301   0.62011   0.38395
C          C       0.19179   0.60917   0.38935
C          C       0.18098   0.58849   0.36636
C          C       0.19175   0.57894   0.33491
C          C       0.21296   0.58991   0.32864
N          N       0.67662   0.32272   0.36122
C          C       0.68696   0.34336   0.36422
C          C       0.64486   0.28971   0.35688
C          C       0.62410   0.27883   0.33343
C          C       0.61364   0.25759   0.33120
C          C       0.62361   0.24671   0.35365
C          C       0.64439   0.25765   0.37733
C          C       0.65491   0.27889   0.37828
C          C       0.61238   0.22407   0.35317
C          C       0.59185   0.21305   0.38104
C          C       0.58140   0.19182   0.38138
C          C       0.59120   0.18108   0.35535
C          C       0.61167   0.19199   0.32627
C          C       0.62211   0.21325   0.32520
O          O       0.52714   0.54393   0.36096
O          O       0.97463   0.45321   0.41105
C          C       0.47628   0.99088   0.38525
C          C       0.48514   0.97852   0.39340
C          C       0.50622   0.98738   0.40253
C          C       0.47271   0.95672   0.39032
C          C       0.46217   0.93849   0.38726
C          C       0.44945   0.91676   0.38314
C          C       0.42826   0.90800   0.38335
C          C       0.41584   0.88688   0.37871
C          C       0.42448   0.87430   0.37381
C          C       0.44580   0.88322   0.37373
C          C       0.45820   0.90435   0.37835
C          C       0.41104   0.85205   0.36867
C          C       0.52280   0.51030   0.38355
C          C       0.48891   0.48079   0.39538
C          C       0.50998   0.48914   0.39005
C          C       0.51842   0.47585   0.39092
C          C       0.52559   0.46482   0.39095
C          C       0.53427   0.45177   0.39034
C          C       0.52163   0.43063   0.39184
C          C       0.53009   0.41796   0.39031
C          C       0.55128   0.42629   0.38722
C          C       0.56390   0.44757   0.38593
C          C       0.55541   0.46021   0.38748
C          C       0.55986   0.41261   0.38487
N          N       0.57943   0.41992   0.38359
N          N       0.41858   0.84000   0.36571
N          N       0.35333   0.67698   0.33380
C          C       0.34285   0.68715   0.33734
C          C       0.35492   0.64539   0.32904
C          C       0.34516   0.62464   0.30558
C          C       0.35604   0.61426   0.30346
C          C       0.37688   0.62431   0.32608
C          C       0.38661   0.64509   0.34958
C          C       0.37579   0.65553   0.35040
C          C       0.38838   0.61316   0.32610
C          C       0.37897   0.59267   0.35439
C          C       0.38986   0.58232   0.35549
C          C       0.41041   0.59217   0.32969
C          C       0.41986   0.61260   0.30007
C          C       0.40893   0.62293   0.29833
N          N       0.67642   0.35349   0.36562
C          C       0.65575   0.34318   0.36407
C          C       0.70947   0.35466   0.36657
C          C       0.72048   0.34482   0.34480
C          C       0.74172   0.35546   0.34701
C          C       0.75249   0.37615   0.37230
C          C       0.74142   0.38594   0.39444
C          C       0.72017   0.37536   0.39098
C          C       0.77513   0.38741   0.37615
C          C       0.78579   0.37758   0.40496
C          C       0.80702   0.38819   0.40901
C          C       0.81808   0.40885   0.38603
C          C       0.80755   0.41874   0.35593
C          C       0.78631   0.40810   0.35101
O          O       0.45529   0.98213   0.37121
O          O       0.54387   0.51815   0.37443
C          C       0.55640   0.53340   0.44166
C          C       0.52663   0.55766   0.42886
C          C       0.44372   0.97692   0.45750
C          C       0.48231   0.03801   0.43986
C          C       0.96009   0.44202   0.48340
C          C       0.02963   0.47025   0.47909
H          H       0.01576   0.47712   0.19578
H          H       0.08225   0.50329   0.14990
H          H       0.11930   0.51836   0.13365
H          H       0.12616   0.57837   0.13898
H          H       0.08920   0.56318   0.15535
H          H       0.15376   0.54796   0.12311
H          H       0.48421   0.02146   0.15624
H          H       0.57554   0.08082   0.10619
H          H       0.59766   0.11786   0.09630
H          H       0.54497   0.12528   0.12118
H          H       0.52302   0.08822   0.13108
H          H       0.60288   0.15238   0.09835
H          H       0.38350   0.71311   0.04766
H          H       0.40135   0.75009   0.05086
H          H       0.34604   0.74846   0.13984
H          H       0.32800   0.71152   0.13219
H          H       0.41467   0.77809   0.15061
H          H       0.43269   0.81523   0.15613
H          H       0.37868   0.81486   0.05781
H          H       0.36086   0.77804   0.04945
H          H       0.67090   0.38308   0.07518
H          H       0.65218   0.40140   0.07687
H          H       0.59790   0.34651   0.16373
H          H       0.61640   0.32802   0.15728
H          H       0.63751   0.41507   0.17450
H          H       0.61876   0.43351   0.17703
H          H       0.56506   0.37985   0.07722
H          H       0.58369   0.36161   0.07186
H          H       0.43391   0.46979   0.20575
H          H       0.43832   0.49223   0.14250
H          H       0.45503   0.49411   0.23793
H          H       0.48139   0.44818   0.24734
H          H       0.45875   0.42973   0.18689
H          H       0.45903   0.45119   0.24297
H          H       0.52186   0.53683   0.14699
H          H       0.49598   0.57655   0.08421
H          H       0.48116   0.59878   0.06985
H          H       0.42104   0.54655   0.10193
H          H       0.43599   0.52456   0.11632
H          H       0.45178   0.60416   0.06983
H          H       0.97829   0.46132   0.19836
H          H       0.91832   0.49314   0.16999
H          H       0.88123   0.47817   0.15858
H          H       0.87438   0.41819   0.14732
H          H       0.91145   0.43332   0.15860
H          H       0.84682   0.44878   0.14662
H          H       0.28645   0.66942   0.05092
H          H       0.24945   0.65038   0.05498
H          H       0.25108   0.59656   0.14097
H          H       0.28805   0.61539   0.13217
H          H       0.22153   0.63568   0.15462
H          H       0.18441   0.61659   0.16239
H          H       0.18454   0.56295   0.06260
H          H       0.22134   0.58193   0.05199
H          H       0.61655   0.28664   0.06591
H          H       0.59812   0.24965   0.06096
H          H       0.65260   0.24930   0.14732
H          H       0.67122   0.28629   0.14783
H          H       0.58408   0.22066   0.15499
H          H       0.56560   0.18349   0.15385
H          H       0.61942   0.18392   0.05165
H          H       0.63764   0.22072   0.05015
H          H       0.52739   0.95757   0.19242
H          H       0.50674   0.95827   0.25158
H          H       0.53206   0.98065   0.25035
H          H       0.56516   0.04394   0.15775
H          H       0.56432   0.02272   0.21900
H          H       0.54682   0.03116   0.25096
H          H       0.46200   0.98441   0.15896
H          H       0.42136   0.91730   0.13622
H          H       0.39937   0.88016   0.12804
H          H       0.45268   0.87351   0.12054
H          H       0.47445   0.91056   0.12880
H          H       0.39457   0.84570   0.11890
H          H       0.53727   0.51510   0.15499
H          H       0.50575   0.42320   0.14433
H          H       0.52080   0.40107   0.14197
H          H       0.58085   0.45413   0.13315
H          H       0.56566   0.47606   0.13549
H          H       0.55029   0.39604   0.13713
H          H       0.32994   0.61622   0.03807
H          H       0.34901   0.59827   0.03308
H          H       0.40335   0.65319   0.11911
H          H       0.38446   0.67133   0.11969
H          H       0.36426   0.58465   0.12761
H          H       0.38337   0.56658   0.12787
H          H       0.43646   0.62066   0.02634
H          H       0.41743   0.63848   0.02311
H          H       0.71340   0.32861   0.07451
H          H       0.75041   0.34724   0.07759
H          H       0.74973   0.40141   0.16598
H          H       0.71275   0.38300   0.15851
H          H       0.77846   0.36159   0.17727
H          H       0.81563   0.38022   0.18296
H          H       0.81614   0.43424   0.08415
H          H       0.77930   0.41572   0.07563
H          H       0.04512   0.56921   0.22343
H          H       0.04564   0.54773   0.27399
H          H       0.02429   0.55165   0.29640
H          H       0.96325   0.51379   0.27888
H          H       0.96886   0.53772   0.22762
H          H       0.98784   0.53633   0.29823
H          H       0.02181   0.53367   0.44697
H          H       0.08215   0.50288   0.40030
H          H       0.11921   0.51842   0.38462
H          H       0.12514   0.57805   0.38873
H          H       0.08809   0.56235   0.40440
H          H       0.15337   0.54819   0.37452
H          H       0.53491   0.01505   0.40739
H          H       0.57507   0.08079   0.35586
H          H       0.59751   0.11785   0.34575
H          H       0.54521   0.12588   0.37150
H          H       0.52300   0.08893   0.38163
H          H       0.60303   0.15261   0.34713
H          H       0.38294   0.71320   0.29807
H          H       0.40101   0.75017   0.30127
H          H       0.34589   0.74896   0.39019
H          H       0.32764   0.71200   0.38259
H          H       0.41450   0.77823   0.40070
H          H       0.43270   0.81537   0.40600
H          H       0.37886   0.81530   0.30741
H          H       0.36086   0.77848   0.29930
H          H       0.67017   0.38335   0.32571
H          H       0.65144   0.40164   0.32738
H          H       0.59712   0.34670   0.41348
H          H       0.61567   0.32823   0.40722
H          H       0.63672   0.41528   0.42460
H          H       0.61799   0.43374   0.42695
H          H       0.56428   0.38008   0.32720
H          H       0.58291   0.36184   0.32174
H          H       0.46402   0.48655   0.39453
H          H       0.49541   0.57743   0.33404
H          H       0.48020   0.59927   0.32017
H          H       0.42038   0.54655   0.35154
H          H       0.43576   0.52488   0.36544
H          H       0.45074   0.60426   0.32107
H          H       0.98434   0.51787   0.44953
H          H       0.91813   0.49271   0.41889
H          H       0.88107   0.47821   0.40774
H          H       0.87333   0.41786   0.39746
H          H       0.91027   0.43248   0.40858
H          H       0.84636   0.44898   0.39575
H          H       0.28577   0.66975   0.30081
H          H       0.24876   0.65067   0.30525
H          H       0.25049   0.59687   0.39069
H          H       0.28744   0.61573   0.38161
H          H       0.22086   0.63590   0.40550
H          H       0.18373   0.61675   0.41344
H          H       0.18397   0.56321   0.31282
H          H       0.22075   0.58224   0.30208
H          H       0.61598   0.28673   0.31547
H          H       0.59778   0.24973   0.31045
H          H       0.65248   0.24983   0.39711
H          H       0.67086   0.28681   0.39764
H          H       0.58394   0.22080   0.40475
H          H       0.56565   0.18365   0.40380
H          H       0.61965   0.18436   0.30239
H          H       0.63770   0.22118   0.30053
H          H       0.51314   0.97796   0.40998
H          H       0.42135   0.91749   0.38701
H          H       0.39947   0.88035   0.37887
H          H       0.45290   0.87391   0.36994
H          H       0.47459   0.91101   0.37801
H          H       0.39476   0.84600   0.36973
H          H       0.47902   0.46452   0.40240
H          H       0.50524   0.42396   0.39397
H          H       0.52007   0.40163   0.39132
H          H       0.58030   0.45444   0.38348
H          H       0.56533   0.47656   0.38620
H          H       0.54949   0.39637   0.38620
H          H       0.32914   0.61645   0.28762
H          H       0.34814   0.59842   0.28280
H          H       0.40251   0.65323   0.36947
H          H       0.38372   0.67146   0.36974
H          H       0.36330   0.58472   0.37793
H          H       0.38236   0.56660   0.37835
H          H       0.43547   0.62063   0.27632
H          H       0.41652   0.63849   0.27335
H          H       0.71270   0.32894   0.32465
H          H       0.74969   0.34752   0.32732
H          H       0.74913   0.40171   0.41636
H          H       0.71213   0.38334   0.40916
H          H       0.77776   0.36179   0.42645
H          H       0.81492   0.38036   0.43198
H          H       0.81555   0.43448   0.33394
H          H       0.77868   0.41601   0.32554
H          H       0.56613   0.54793   0.40395
H          H       0.56638   0.52862   0.47725
H          H       0.54754   0.53592   0.49745
H          H       0.51660   0.54982   0.49039
H          H       0.52135   0.56727   0.39371
H          H       0.54225   0.56770   0.45606
H          H       0.44566   0.96568   0.00007
H          H       0.42733   0.97024   0.44065
H          H       0.44866   0.99104   0.49934
H          H       0.49008   0.05335   0.40724
H          H       0.49156   0.03786   0.00052
H          H       0.46737   0.03498   0.46775
H          H       0.96307   0.43006   0.01092
H          H       0.94458   0.43455   0.45239
H          H       0.96065   0.45162   0.04405
H          H       0.04466   0.47518   0.44614
H          H       0.02358   0.45463   0.00722
H          H       0.03171   0.48047   0.03961
C          C       0.00927   0.48697   0.69066
C          C       0.02186   0.50800   0.68098
C          C       0.01327   0.52069   0.67581
C          C       0.04348   0.51630   0.67183
C          C       0.06159   0.52344   0.66369
C          C       0.08322   0.53221   0.65382
C          C       0.09182   0.51968   0.64753
C          C       0.11289   0.52827   0.63828
C          C       0.12556   0.54948   0.63511
C          C       0.11678   0.56198   0.64123
C          C       0.09573   0.55336   0.65054
C          C       0.14776   0.55822   0.62584
C          C       0.49093   0.01182   0.65067
C          C       0.52060   0.00762   0.63548
C          C       0.51201   0.02038   0.64124
C          C       0.52443   0.04213   0.63321
C          C       0.53497   0.06032   0.62668
C          C       0.54778   0.08200   0.61939
C          C       0.56883   0.09048   0.60937
C          C       0.58139   0.11157   0.60376
C          C       0.57304   0.12440   0.60808
C          C       0.55184   0.11576   0.61762
C          C       0.53930   0.09466   0.62326
C          C       0.58669   0.14662   0.60336
N          N       0.57947   0.15893   0.60826
N          N       0.15983   0.57781   0.62413
N          N       0.32279   0.67612   0.58922
C          C       0.31267   0.65547   0.58790
C          C       0.35433   0.70936   0.58957
C          C       0.37516   0.72066   0.56788
C          C       0.38544   0.74189   0.57040
C          C       0.37520   0.75235   0.59587
C          C       0.35435   0.74099   0.61782
C          C       0.34401   0.71977   0.61408
C          C       0.38621   0.77497   0.60011
C          C       0.40668   0.78591   0.62912
C          C       0.41698   0.80712   0.63316
C          C       0.40706   0.81790   0.61000
C          C       0.38666   0.80709   0.57993
C          C       0.37638   0.78587   0.57502
N          N       0.64629   0.32228   0.61111
C          C       0.65657   0.31190   0.60965
C          C       0.64513   0.35410   0.61593
C          C       0.65497   0.37495   0.59466
C          C       0.64425   0.38548   0.59631
C          C       0.62349   0.37549   0.62067
C          C       0.61372   0.35463   0.64249
C          C       0.62437   0.34403   0.63944
C          C       0.61210   0.38675   0.62351
C          C       0.62176   0.40724   0.65212
C          C       0.61105   0.41778   0.65448
C          C       0.59044   0.40808   0.63001
C          C       0.58072   0.38765   0.60043
C          C       0.59146   0.37714   0.59723
O          O       0.51606   0.97377   0.62228
O          O       0.98317   0.52382   0.66226
C          C       0.44585   0.48463   0.67735
C          C       0.46838   0.44615   0.70312
C          C       0.51216   0.52047   0.64257
C          C       0.49111   0.51182   0.63124
C          C       0.47861   0.49046   0.62629
C          C       0.48275   0.52508   0.62032
C          C       0.47566   0.53608   0.61140
C          C       0.46700   0.54905   0.60134
C          C       0.47962   0.56998   0.58798
C          C       0.47116   0.58260   0.57982
C          C       0.45000   0.57440   0.58489
C          C       0.43741   0.55332   0.59770
C          C       0.44589   0.54074   0.60590
C          C       0.44141   0.58804   0.57771
C          C       0.98781   0.47766   0.69211
C          C       0.99162   0.51130   0.67717
C          C       0.97908   0.49004   0.68384
C          C       0.95730   0.48072   0.67770
C          C       0.93909   0.47310   0.67206
C          C       0.91739   0.46425   0.66517
C          C       0.90875   0.47678   0.66497
C          C       0.88766   0.46824   0.65849
C          C       0.87498   0.44707   0.65219
C          C       0.88377   0.43456   0.65223
C          C       0.90488   0.44314   0.65865
C          C       0.85274   0.43844   0.64593
N          N       0.84056   0.41889   0.64296
N          N       0.42189   0.58082   0.58387
N          N       0.32342   0.64557   0.58444
C          C       0.34408   0.65611   0.58221
C          C       0.29018   0.64391   0.59106
C          C       0.27889   0.65351   0.57068
C          C       0.25765   0.64261   0.57367
C          C       0.24718   0.62189   0.59852
C          C       0.25854   0.61234   0.61936
C          C       0.27978   0.62318   0.61497
C          C       0.22454   0.61033   0.60334
C          C       0.21367   0.61988   0.63316
C          C       0.19245   0.60898   0.63848
C          C       0.18161   0.58829   0.61569
C          C       0.19235   0.57870   0.58444
C          C       0.21357   0.58963   0.57828
N          N       0.67724   0.32237   0.61116
C          C       0.68761   0.34302   0.61391
C          C       0.64535   0.28941   0.60716
C          C       0.62458   0.27865   0.58384
C          C       0.61397   0.25741   0.58165
C          C       0.62381   0.24640   0.60398
C          C       0.64460   0.25722   0.62762
C          C       0.65527   0.27846   0.62857
C          C       0.61245   0.22377   0.60323
C          C       0.59191   0.21284   0.63113
C          C       0.58135   0.19160   0.63135
C          C       0.59105   0.18077   0.60515
C          C       0.61152   0.19161   0.57589
C          C       0.62206   0.21286   0.57495
O          O       0.02555   0.54162   0.65987
O          O       0.47543   0.45712   0.61645
C          C       0.52074   0.96733   0.70886
C          C       0.55492   0.02895   0.69063
C          C       0.47829   0.99076   0.65194
C          C       0.48656   0.97802   0.64340
C          C       0.50774   0.98641   0.63579
C          C       0.47324   0.95633   0.64034
C          C       0.46227   0.93816   0.63728
C          C       0.44940   0.91645   0.63313
C          C       0.42822   0.90776   0.63290
C          C       0.41574   0.88664   0.62823
C          C       0.42431   0.87400   0.62367
C          C       0.44563   0.88285   0.62403
C          C       0.45807   0.90397   0.62873
C          C       0.41085   0.85175   0.61840
C          C       0.52094   0.50815   0.64692
C          C       0.48758   0.47814   0.62959
C          C       0.50877   0.48704   0.63958
C          C       0.51815   0.47459   0.64024
C          C       0.52578   0.46398   0.64042
C          C       0.53468   0.45112   0.64011
C          C       0.52215   0.42997   0.64202
C          C       0.53073   0.41742   0.64066
C          C       0.55194   0.42588   0.63740
C          C       0.56445   0.44716   0.63575
C          C       0.55583   0.45970   0.63709
C          C       0.56061   0.41229   0.63526
N          N       0.58019   0.41967   0.63360
N          N       0.41840   0.83971   0.61593
N          N       0.35398   0.67676   0.58370
C          C       0.34344   0.68687   0.58716
C          C       0.35568   0.64520   0.57923
C          C       0.34597   0.62445   0.55588
C          C       0.35689   0.61412   0.55367
C          C       0.37775   0.62422   0.57600
C          C       0.38743   0.64500   0.59945
C          C       0.37656   0.65539   0.60043
C          C       0.38930   0.61311   0.57581
C          C       0.37992   0.59262   0.60403
C          C       0.39085   0.58230   0.60505
C          C       0.41140   0.59218   0.57938
C          C       0.42083   0.61261   0.54985
C          C       0.40986   0.62291   0.54802
N          N       0.67711   0.35319   0.61523
C          C       0.65645   0.34292   0.61386
C          C       0.71013   0.35432   0.61620
C          C       0.72116   0.34451   0.59459
C          C       0.74241   0.35517   0.59701
C          C       0.75315   0.37586   0.62230
C          C       0.74205   0.38564   0.64411
C          C       0.72081   0.37503   0.64049
C          C       0.77579   0.38716   0.62655
C          C       0.78648   0.37738   0.65570
C          C       0.80772   0.38802   0.65982
C          C       0.81875   0.40868   0.63663
C          C       0.80818   0.41852   0.60637
C          C       0.78694   0.40784   0.60135
O          O       0.45760   0.48110   0.60868
O          O       0.54149   0.01539   0.61991
C          C       0.03558   0.55295   0.74285
C          C       0.97543   0.52799   0.74623
C          C       0.00834   0.48365   0.92445
C          C       0.02095   0.50498   0.93048
C          C       0.01225   0.51733   0.94108
C          C       0.04271   0.51451   0.92108
C          C       0.06091   0.52237   0.91309
C          C       0.08260   0.53156   0.90353
C          C       0.09150   0.51929   0.89778
C          C       0.11258   0.52815   0.88885
C          C       0.12500   0.54938   0.88553
C          C       0.11595   0.56163   0.89113
C          C       0.09485   0.55273   0.90008
C          C       0.14724   0.55834   0.87665
C          C       0.48863   0.01216   0.88494
C          C       0.51858   0.00847   0.90132
C          C       0.50999   0.02095   0.89128
C          C       0.52332   0.04259   0.88326
C          C       0.53442   0.06070   0.87674
C          C       0.54751   0.08234   0.86950
C          C       0.56853   0.09062   0.85920
C          C       0.58127   0.11169   0.85346
C          C       0.57311   0.12469   0.85793
C          C       0.55195   0.11625   0.86780
C          C       0.53925   0.09518   0.87358
C          C       0.58686   0.14690   0.85296
N          N       0.57969   0.15924   0.85849
N          N       0.15918   0.57794   0.87465
N          N       0.32218   0.67646   0.83924
C          C       0.31202   0.65581   0.83766
C          C       0.35384   0.70965   0.83993
C          C       0.37469   0.72083   0.81831
C          C       0.38509   0.74206   0.82082
C          C       0.37496   0.75264   0.84620
C          C       0.35411   0.74139   0.86820
C          C       0.34365   0.72017   0.86451
C          C       0.38610   0.77526   0.85018
C          C       0.40658   0.78611   0.87911
C          C       0.41698   0.80733   0.88304
C          C       0.40716   0.81819   0.85981
C          C       0.38675   0.80747   0.82970
C          C       0.37638   0.78624   0.82489
N          N       0.64563   0.32253   0.86108
C          C       0.65597   0.31220   0.85956
C          C       0.64440   0.35433   0.86616
C          C       0.65423   0.37519   0.84505
C          C       0.64350   0.38572   0.84668
C          C       0.62273   0.37571   0.87077
C          C       0.61296   0.35484   0.89245
C          C       0.62363   0.34425   0.88950
C          C       0.61133   0.38697   0.87348
C          C       0.62098   0.40746   0.90211
C          C       0.61028   0.41800   0.90439
C          C       0.58967   0.40832   0.87992
C          C       0.57995   0.38789   0.85035
C          C       0.59069   0.37737   0.84710
O          O       0.01634   0.47073   0.90851
O          O       0.47935   0.02394   0.86901
C          C       0.51426   0.52310   0.87915
C          C       0.49287   0.51438   0.88163
C          C       0.48041   0.49334   0.89126
C          C       0.48343   0.52665   0.87013
C          C       0.47566   0.53705   0.86095
C          C       0.46663   0.54967   0.85076
C          C       0.47903   0.57065   0.83772
C          C       0.47035   0.58305   0.82986
C          C       0.44916   0.57461   0.83491
C          C       0.43676   0.55349   0.84734
C          C       0.44548   0.54110   0.85525
C          C       0.44042   0.58811   0.82819
C          C       0.98670   0.47427   0.92580
C          C       0.99079   0.50802   0.94252
C          C       0.97813   0.48701   0.93328
C          C       0.95649   0.47892   0.92678
C          C       0.93837   0.47203   0.92123
C          C       0.91672   0.46358   0.91458
C          C       0.90836   0.47637   0.91422
C          C       0.88729   0.46810   0.90786
C          C       0.87437   0.44696   0.90182
C          C       0.88289   0.43421   0.90214
C          C       0.90395   0.44251   0.90846
C          C       0.85217   0.43854   0.89538
N          N       0.83988   0.41901   0.89248
N          N       0.42089   0.58079   0.83398
N          N       0.32272   0.64586   0.83411
C          C       0.34338   0.65634   0.83206
C          C       0.28953   0.64425   0.84075
C          C       0.27822   0.65384   0.82049
C          C       0.25698   0.64291   0.82369
C          C       0.24653   0.62219   0.84855
C          C       0.25792   0.61265   0.86910
C          C       0.27915   0.62351   0.86456
C          C       0.22391   0.61061   0.85377
C          C       0.21301   0.62011   0.88395
C          C       0.19179   0.60917   0.88935
C          C       0.18098   0.58849   0.86637
C          C       0.19175   0.57894   0.83491
C          C       0.21296   0.58991   0.82864
N          N       0.67662   0.32272   0.86122
C          C       0.68696   0.34336   0.86421
C          C       0.64486   0.28971   0.85688
C          C       0.62410   0.27883   0.83343
C          C       0.61364   0.25759   0.83120
C          C       0.62361   0.24671   0.85365
C          C       0.64439   0.25765   0.87733
C          C       0.65491   0.27889   0.87828
C          C       0.61238   0.22407   0.85316
C          C       0.59185   0.21305   0.88104
C          C       0.58140   0.19182   0.88138
C          C       0.59120   0.18108   0.85535
C          C       0.61167   0.19199   0.82627
C          C       0.62211   0.21325   0.82519
O          O       0.52714   0.54393   0.86096
O          O       0.97463   0.45321   0.91105
C          C       0.47628   0.99088   0.88524
C          C       0.48514   0.97852   0.89340
C          C       0.50622   0.98738   0.90253
C          C       0.47271   0.95672   0.89032
C          C       0.46217   0.93849   0.88725
C          C       0.44945   0.91676   0.88314
C          C       0.42826   0.90800   0.88335
C          C       0.41584   0.88688   0.87870
C          C       0.42448   0.87430   0.87381
C          C       0.44580   0.88322   0.87373
C          C       0.45820   0.90435   0.87835
C          C       0.41104   0.85205   0.86867
C          C       0.52280   0.51030   0.88355
C          C       0.48891   0.48079   0.89538
C          C       0.50998   0.48914   0.89005
C          C       0.51842   0.47585   0.89092
C          C       0.52559   0.46482   0.89095
C          C       0.53427   0.45177   0.89034
C          C       0.52163   0.43063   0.89184
C          C       0.53009   0.41796   0.89031
C          C       0.55128   0.42629   0.88722
C          C       0.56390   0.44757   0.88593
C          C       0.55541   0.46021   0.88748
C          C       0.55986   0.41261   0.88487
N          N       0.57943   0.41992   0.88359
N          N       0.41858   0.84000   0.86571
N          N       0.35333   0.67698   0.83380
C          C       0.34285   0.68715   0.83734
C          C       0.35492   0.64539   0.82904
C          C       0.34516   0.62464   0.80558
C          C       0.35604   0.61426   0.80346
C          C       0.37688   0.62431   0.82608
C          C       0.38661   0.64509   0.84959
C          C       0.37579   0.65553   0.85040
C          C       0.38838   0.61316   0.82610
C          C       0.37897   0.59267   0.85439
C          C       0.38986   0.58232   0.85549
C          C       0.41041   0.59217   0.82969
C          C       0.41986   0.61260   0.80007
C          C       0.40893   0.62293   0.79833
N          N       0.67642   0.35349   0.86562
C          C       0.65575   0.34318   0.86407
C          C       0.70947   0.35466   0.86657
C          C       0.72048   0.34482   0.84480
C          C       0.74172   0.35546   0.84701
C          C       0.75249   0.37615   0.87230
C          C       0.74142   0.38594   0.89445
C          C       0.72017   0.37536   0.89098
C          C       0.77513   0.38741   0.87615
C          C       0.78579   0.37758   0.90496
C          C       0.80702   0.38819   0.90901
C          C       0.81808   0.40885   0.88603
C          C       0.80755   0.41874   0.85593
C          C       0.78631   0.40810   0.85101
O          O       0.45529   0.98213   0.87121
O          O       0.54387   0.51815   0.87442
C          C       0.55640   0.53340   0.94166
C          C       0.52663   0.55766   0.92886
C          C       0.44372   0.97692   0.95751
C          C       0.48231   0.03801   0.93986
C          C       0.96009   0.44202   0.98340
C          C       0.02963   0.47025   0.97909
H          H       0.01576   0.47712   0.69578
H          H       0.08225   0.50329   0.64990
H          H       0.11930   0.51836   0.63365
H          H       0.12616   0.57837   0.63899
H          H       0.08920   0.56318   0.65535
H          H       0.15376   0.54796   0.62311
H          H       0.48421   0.02146   0.65624
H          H       0.57554   0.08082   0.60619
H          H       0.59766   0.11786   0.59630
H          H       0.54497   0.12528   0.62118
H          H       0.52302   0.08822   0.63108
H          H       0.60288   0.15238   0.59835
H          H       0.38350   0.71311   0.54766
H          H       0.40135   0.75009   0.55086
H          H       0.34604   0.74846   0.63984
H          H       0.32800   0.71152   0.63219
H          H       0.41467   0.77809   0.65061
H          H       0.43269   0.81523   0.65612
H          H       0.37868   0.81486   0.55781
H          H       0.36086   0.77804   0.54944
H          H       0.67090   0.38308   0.57517
H          H       0.65218   0.40140   0.57686
H          H       0.59790   0.34651   0.66373
H          H       0.61640   0.32802   0.65728
H          H       0.63751   0.41507   0.67450
H          H       0.61876   0.43351   0.67703
H          H       0.56506   0.37985   0.57722
H          H       0.58369   0.36161   0.57186
H          H       0.43391   0.46979   0.70576
H          H       0.43832   0.49223   0.64250
H          H       0.45503   0.49411   0.73794
H          H       0.48139   0.44818   0.74734
H          H       0.45875   0.42973   0.68689
H          H       0.45903   0.45119   0.74297
H          H       0.52186   0.53683   0.64699
H          H       0.49598   0.57655   0.58421
H          H       0.48116   0.59878   0.56985
H          H       0.42104   0.54655   0.60193
H          H       0.43599   0.52456   0.61632
H          H       0.45178   0.60416   0.56983
H          H       0.97829   0.46132   0.69835
H          H       0.91832   0.49314   0.66999
H          H       0.88123   0.47817   0.65858
H          H       0.87438   0.41819   0.64732
H          H       0.91145   0.43332   0.65860
H          H       0.84682   0.44878   0.64662
H          H       0.28645   0.66942   0.55092
H          H       0.24945   0.65038   0.55497
H          H       0.25108   0.59656   0.64096
H          H       0.28805   0.61539   0.63217
H          H       0.22153   0.63568   0.65462
H          H       0.18441   0.61659   0.66239
H          H       0.18454   0.56295   0.56260
H          H       0.22134   0.58193   0.55199
H          H       0.61655   0.28664   0.56591
H          H       0.59812   0.24965   0.56096
H          H       0.65260   0.24930   0.64731
H          H       0.67122   0.28629   0.64784
H          H       0.58408   0.22066   0.65499
H          H       0.56560   0.18349   0.65385
H          H       0.61942   0.18392   0.55165
H          H       0.63764   0.22072   0.55015
H          H       0.52739   0.95757   0.69242
H          H       0.50674   0.95827   0.75158
H          H       0.53206   0.98065   0.75035
H          H       0.56516   0.04394   0.65775
H          H       0.56432   0.02272   0.71900
H          H       0.54682   0.03116   0.75096
H          H       0.46200   0.98441   0.65897
H          H       0.42136   0.91730   0.63621
H          H       0.39937   0.88016   0.62804
H          H       0.45268   0.87351   0.62054
H          H       0.47445   0.91056   0.62880
H          H       0.39457   0.84570   0.61890
H          H       0.53727   0.51510   0.65499
H          H       0.50575   0.42320   0.64433
H          H       0.52080   0.40107   0.64198
H          H       0.58085   0.45413   0.63316
H          H       0.56566   0.47606   0.63549
H          H       0.55029   0.39604   0.63713
H          H       0.32994   0.61622   0.53807
H          H       0.34901   0.59827   0.53308
H          H       0.40335   0.65319   0.61912
H          H       0.38446   0.67133   0.61969
H          H       0.36426   0.58465   0.62761
H          H       0.38337   0.56658   0.62787
H          H       0.43646   0.62066   0.52634
H          H       0.41743   0.63848   0.52311
H          H       0.71340   0.32861   0.57451
H          H       0.75041   0.34724   0.57759
H          H       0.74973   0.40141   0.66598
H          H       0.71275   0.38300   0.65851
H          H       0.77846   0.36159   0.67727
H          H       0.81563   0.38022   0.68295
H          H       0.81614   0.43424   0.58415
H          H       0.77930   0.41572   0.57563
H          H       0.04512   0.56921   0.72343
H          H       0.04564   0.54773   0.77399
H          H       0.02429   0.55165   0.79639
H          H       0.96325   0.51379   0.77888
H          H       0.96886   0.53772   0.72762
H          H       0.98784   0.53633   0.79824
H          H       0.02181   0.53367   0.94697
H          H       0.08215   0.50288   0.90030
H          H       0.11921   0.51842   0.88462
H          H       0.12514   0.57805   0.88873
H          H       0.08809   0.56235   0.90440
H          H       0.15337   0.54819   0.87452
H          H       0.53491   0.01505   0.90739
H          H       0.57507   0.08079   0.85586
H          H       0.59751   0.11785   0.84575
H          H       0.54521   0.12588   0.87150
H          H       0.52300   0.08893   0.88163
H          H       0.60303   0.15261   0.84712
H          H       0.38294   0.71320   0.79806
H          H       0.40101   0.75017   0.80127
H          H       0.34589   0.74896   0.89019
H          H       0.32764   0.71200   0.88259
H          H       0.41450   0.77823   0.90070
H          H       0.43270   0.81537   0.90600
H          H       0.37886   0.81530   0.80741
H          H       0.36086   0.77848   0.79930
H          H       0.67017   0.38335   0.82571
H          H       0.65144   0.40164   0.82737
H          H       0.59712   0.34670   0.91349
H          H       0.61567   0.32823   0.90722
H          H       0.63672   0.41528   0.92460
H          H       0.61799   0.43374   0.92695
H          H       0.56428   0.38008   0.82720
H          H       0.58291   0.36184   0.82174
H          H       0.46402   0.48655   0.89453
H          H       0.49541   0.57743   0.83404
H          H       0.48020   0.59927   0.82017
H          H       0.42038   0.54655   0.85154
H          H       0.43576   0.52488   0.86544
H          H       0.45074   0.60426   0.82107
H          H       0.98434   0.51787   0.94953
H          H       0.91813   0.49271   0.91889
H          H       0.88107   0.47821   0.90774
H          H       0.87333   0.41786   0.89746
H          H       0.91027   0.43248   0.90858
H          H       0.84636   0.44898   0.89575
H          H       0.28577   0.66975   0.80081
H          H       0.24876   0.65067   0.80526
H          H       0.25049   0.59687   0.89068
H          H       0.28744   0.61573   0.88162
H          H       0.22086   0.63590   0.90550
H          H       0.18373   0.61675   0.91344
H          H       0.18397   0.56321   0.81281
H          H       0.22075   0.58224   0.80209
H          H       0.61598   0.28673   0.81546
H          H       0.59778   0.24973   0.81045
H          H       0.65248   0.24983   0.89711
H          H       0.67086   0.28681   0.89763
H          H       0.58394   0.22080   0.90475
H          H       0.56565   0.18365   0.90380
H          H       0.61965   0.18436   0.80239
H          H       0.63770   0.22118   0.80053
H          H       0.51314   0.97796   0.90999
H          H       0.42135   0.91749   0.88701
H          H       0.39947   0.88035   0.87887
H          H       0.45290   0.87391   0.86994
H          H       0.47459   0.91101   0.87801
H          H       0.39476   0.84600   0.86973
H          H       0.47902   0.46452   0.90239
H          H       0.50524   0.42396   0.89398
H          H       0.52007   0.40163   0.89132
H          H       0.58030   0.45444   0.88348
H          H       0.56533   0.47656   0.88620
H          H       0.54949   0.39637   0.88620
H          H       0.32914   0.61645   0.78762
H          H       0.34814   0.59842   0.78280
H          H       0.40251   0.65323   0.86947
H          H       0.38372   0.67146   0.86974
H          H       0.36330   0.58472   0.87793
H          H       0.38236   0.56660   0.87835
H          H       0.43547   0.62063   0.77632
H          H       0.41652   0.63849   0.77335
H          H       0.71270   0.32894   0.82464
H          H       0.74969   0.34752   0.82732
H          H       0.74913   0.40171   0.91636
H          H       0.71213   0.38334   0.90916
H          H       0.77776   0.36179   0.92644
H          H       0.81492   0.38036   0.93198
H          H       0.81555   0.43448   0.83395
H          H       0.77868   0.41601   0.82554
H          H       0.56613   0.54793   0.90395
H          H       0.56638   0.52862   0.97725
H          H       0.54754   0.53592   0.99745
H          H       0.51660   0.54982   0.99038
H          H       0.52135   0.56727   0.89370
H          H       0.54225   0.56770   0.95607
H          H       0.44566   0.96568   0.50007
H          H       0.42733   0.97024   0.94065
H          H       0.44866   0.99104   0.99935
H          H       0.49008   0.05335   0.90724
H          H       0.49156   0.03786   0.50052
H          H       0.46737   0.03498   0.96774
H          H       0.96307   0.43006   0.51092
H          H       0.94458   0.43455   0.95239
H          H       0.96065   0.45162   0.54405
H          H       0.04466   0.47518   0.94614
H          H       0.02358   0.45463   0.50722
H          H       0.03171   0.48047   0.53961
