data_crystal

_cell_length_a    39.88000
_cell_length_b    35.81000
_cell_length_c    38.22000
_cell_angle_alpha 90.00000
_cell_angle_beta  90.00000
_cell_angle_gamma 90.00000

_space_group_name_Hall 'P 1'
_space_group_name_H-M_alt 'P 1'

loop_
_symmetry_equiv_pos_as_xyz
 'x,y,z'

loop_
_atom_site_label
_atom_site_type_symbol
_atom_site_fract_x
_atom_site_fract_y
_atom_site_fract_z
C          C       0.68690   0.43110   0.74840
C          C       0.31310   0.06890   0.74840
C          C       0.31310   0.93110   0.25160
C          C       0.68690   0.56890   0.25160
C          C       0.18690   0.93110   0.24840
C          C       0.81310   0.56890   0.24840
C          C       0.81310   0.43110   0.75160
C          C       0.18690   0.06890   0.75160
C          C       0.31310   0.56890   0.25160
C          C       0.68690   0.93110   0.25160
C          C       0.68690   0.06890   0.74840
C          C       0.31310   0.43110   0.74840
C          C       0.81310   0.06890   0.75160
C          C       0.18690   0.43110   0.75160
C          C       0.18690   0.56890   0.24840
C          C       0.81310   0.93110   0.24840
C          C       0.80710   0.52920   0.55070
C          C       0.19290   0.97080   0.55070
C          C       0.19290   0.02920   0.44930
C          C       0.80710   0.47080   0.44930
C          C       0.30710   0.02920   0.05070
C          C       0.69290   0.47080   0.05070
C          C       0.69290   0.52920   0.94930
C          C       0.30710   0.97080   0.94930
C          C       0.19290   0.47080   0.44930
C          C       0.80710   0.02920   0.44930
C          C       0.80710   0.97080   0.55070
C          C       0.19290   0.52920   0.55070
C          C       0.69290   0.97080   0.94930
C          C       0.30710   0.52920   0.94930
C          C       0.30710   0.47080   0.05070
C          C       0.69290   0.02920   0.05070
C          C       0.65380   0.40640   0.81570
C          C       0.34620   0.09360   0.81570
C          C       0.34620   0.90640   0.18430
C          C       0.65380   0.59360   0.18430
C          C       0.15380   0.90640   0.31570
C          C       0.84620   0.59360   0.31570
C          C       0.84620   0.40640   0.68430
C          C       0.15380   0.09360   0.68430
C          C       0.34620   0.59360   0.18430
C          C       0.65380   0.90640   0.18430
C          C       0.65380   0.09360   0.81570
C          C       0.34620   0.40640   0.81570
C          C       0.84620   0.09360   0.68430
C          C       0.15380   0.40640   0.68430
C          C       0.15380   0.59360   0.31570
C          C       0.84620   0.90640   0.31570
C          C       0.63700   0.39250   0.85140
C          C       0.36300   0.10750   0.85140
C          C       0.36300   0.89250   0.14860
C          C       0.63700   0.60750   0.14860
C          C       0.13700   0.89250   0.35140
C          C       0.86300   0.60750   0.35140
C          C       0.86300   0.39250   0.64860
C          C       0.13700   0.10750   0.64860
C          C       0.36300   0.60750   0.14860
C          C       0.63700   0.89250   0.14860
C          C       0.63700   0.10750   0.85140
C          C       0.36300   0.39250   0.85140
C          C       0.86300   0.10750   0.64860
C          C       0.13700   0.39250   0.64860
C          C       0.13700   0.60750   0.35140
C          C       0.86300   0.89250   0.35140
C          C       0.60970   0.36550   0.85300
C          C       0.39030   0.13450   0.85300
C          C       0.39030   0.86550   0.14700
C          C       0.60970   0.63450   0.14700
C          C       0.10970   0.86550   0.35300
C          C       0.89030   0.63450   0.35300
C          C       0.89030   0.36550   0.64700
C          C       0.10970   0.13450   0.64700
C          C       0.39030   0.63450   0.14700
C          C       0.60970   0.86550   0.14700
C          C       0.60970   0.13450   0.85300
C          C       0.39030   0.36550   0.85300
C          C       0.89030   0.13450   0.64700
C          C       0.10970   0.36550   0.64700
C          C       0.10970   0.63450   0.35300
C          C       0.89030   0.86550   0.35300
C          C       0.69980   0.43110   0.99160
C          C       0.30020   0.06890   0.99160
C          C       0.30020   0.93110   0.00840
C          C       0.69980   0.56890   0.00840
C          C       0.19980   0.93110   0.49160
C          C       0.80020   0.56890   0.49160
C          C       0.80020   0.43110   0.50840
C          C       0.19980   0.06890   0.50840
C          C       0.30020   0.56890   0.00840
C          C       0.69980   0.93110   0.00840
C          C       0.69980   0.06890   0.99160
C          C       0.30020   0.43110   0.99160
C          C       0.80020   0.06890   0.50840
C          C       0.19980   0.43110   0.50840
C          C       0.19980   0.56890   0.49160
C          C       0.80020   0.93110   0.49160
C          C       0.65430   0.38430   0.78470
C          C       0.34570   0.11570   0.78470
C          C       0.34570   0.88430   0.21530
C          C       0.65430   0.61570   0.21530
C          C       0.15430   0.88430   0.28470
C          C       0.84570   0.61570   0.28470
C          C       0.84570   0.38430   0.71530
C          C       0.15430   0.11570   0.71530
C          C       0.34570   0.61570   0.21530
C          C       0.65430   0.88430   0.21530
C          C       0.65430   0.11570   0.78470
C          C       0.34570   0.38430   0.78470
C          C       0.84570   0.11570   0.71530
C          C       0.15430   0.38430   0.71530
C          C       0.15430   0.61570   0.28470
C          C       0.84570   0.88430   0.28470
C          C       0.67020   0.39610   0.75270
C          C       0.32980   0.10390   0.75270
C          C       0.32980   0.89610   0.24730
C          C       0.67020   0.60390   0.24730
C          C       0.17020   0.89610   0.25270
C          C       0.82980   0.60390   0.25270
C          C       0.82980   0.39610   0.74730
C          C       0.17020   0.10390   0.74730
C          C       0.32980   0.60390   0.24730
C          C       0.67020   0.89610   0.24730
C          C       0.67020   0.10390   0.75270
C          C       0.32980   0.39610   0.75270
C          C       0.82980   0.10390   0.74730
C          C       0.17020   0.39610   0.74730
C          C       0.17020   0.60390   0.25270
C          C       0.82980   0.89610   0.25270
C          C       0.68590   0.41430   0.96020
C          C       0.31410   0.08570   0.96020
C          C       0.31410   0.91430   0.03980
C          C       0.68590   0.58570   0.03980
C          C       0.18590   0.91430   0.46020
C          C       0.81410   0.58570   0.46020
C          C       0.81410   0.41430   0.53980
C          C       0.18590   0.08570   0.53980
C          C       0.31410   0.58570   0.03980
C          C       0.68590   0.91430   0.03980
C          C       0.68590   0.08570   0.96020
C          C       0.31410   0.41430   0.96020
C          C       0.81410   0.08570   0.53980
C          C       0.18590   0.41430   0.53980
C          C       0.18590   0.58570   0.46020
C          C       0.81410   0.91430   0.46020
C          C       0.73320   0.52460   0.65930
C          C       0.26680   0.97540   0.65930
C          C       0.26680   0.02460   0.34070
C          C       0.73320   0.47540   0.34070
C          C       0.23320   0.02460   0.15930
C          C       0.76680   0.47540   0.15930
C          C       0.76680   0.52460   0.84070
C          C       0.23320   0.97540   0.84070
C          C       0.26680   0.47540   0.34070
C          C       0.73320   0.02460   0.34070
C          C       0.73320   0.97540   0.65930
C          C       0.26680   0.52460   0.65930
C          C       0.76680   0.97540   0.84070
C          C       0.23320   0.52460   0.84070
C          C       0.23320   0.47540   0.15930
C          C       0.76680   0.02460   0.15930
C          C       0.73360   0.48600   0.66740
C          C       0.26640   0.01400   0.66740
C          C       0.26640   0.98600   0.33260
C          C       0.73360   0.51400   0.33260
C          C       0.23360   0.98600   0.16740
C          C       0.76640   0.51400   0.16740
C          C       0.76640   0.48600   0.83260
C          C       0.23360   0.01400   0.83260
C          C       0.26640   0.51400   0.33260
C          C       0.73360   0.98600   0.33260
C          C       0.73360   0.01400   0.66740
C          C       0.26640   0.48600   0.66740
C          C       0.76640   0.01400   0.83260
C          C       0.23360   0.48600   0.83260
C          C       0.23360   0.51400   0.16740
C          C       0.76640   0.98600   0.16740
C          C       0.74820   0.54070   0.62840
C          C       0.25180   0.95930   0.62840
C          C       0.25180   0.04070   0.37160
C          C       0.74820   0.45930   0.37160
C          C       0.24820   0.04070   0.12840
C          C       0.75180   0.45930   0.12840
C          C       0.75180   0.54070   0.87160
C          C       0.24820   0.95930   0.87160
C          C       0.25180   0.45930   0.37160
C          C       0.74820   0.04070   0.37160
C          C       0.74820   0.95930   0.62840
C          C       0.25180   0.54070   0.62840
C          C       0.75180   0.95930   0.87160
C          C       0.24820   0.54070   0.87160
C          C       0.24820   0.45930   0.12840
C          C       0.75180   0.04070   0.12840
N          N       0.71780   0.47320   0.70150
N          N       0.28220   0.02680   0.70150
N          N       0.28220   0.97320   0.29850
N          N       0.71780   0.52680   0.29850
N          N       0.21780   0.97320   0.20150
N          N       0.78220   0.52680   0.20150
N          N       0.78220   0.47320   0.79850
N          N       0.21780   0.02680   0.79850
N          N       0.28220   0.52680   0.29850
N          N       0.71780   0.97320   0.29850
N          N       0.71780   0.02680   0.70150
N          N       0.28220   0.47320   0.70150
N          N       0.78220   0.02680   0.79850
N          N       0.21780   0.47320   0.79850
N          N       0.21780   0.52680   0.20150
N          N       0.78220   0.97320   0.20150
C          C       0.67960   0.44820   0.01780
C          C       0.32040   0.05180   0.01780
C          C       0.32040   0.94820   0.98220
C          C       0.67960   0.55180   0.98220
C          C       0.17960   0.94820   0.51780
C          C       0.82040   0.55180   0.51780
C          C       0.82040   0.44820   0.48220
C          C       0.17960   0.05180   0.48220
C          C       0.32040   0.55180   0.98220
C          C       0.67960   0.94820   0.98220
C          C       0.67960   0.05180   0.01780
C          C       0.32040   0.44820   0.01780
C          C       0.82040   0.05180   0.48220
C          C       0.17960   0.44820   0.48220
C          C       0.17960   0.55180   0.51780
C          C       0.82040   0.94820   0.51780
C          C       0.70390   0.44080   0.71190
C          C       0.29610   0.05920   0.71190
C          C       0.29610   0.94080   0.28810
C          C       0.70390   0.55920   0.28810
C          C       0.20390   0.94080   0.21190
C          C       0.79610   0.55920   0.21190
C          C       0.79610   0.44080   0.78810
C          C       0.20390   0.05920   0.78810
C          C       0.29610   0.55920   0.28810
C          C       0.70390   0.94080   0.28810
C          C       0.70390   0.05920   0.71190
C          C       0.29610   0.44080   0.71190
C          C       0.79610   0.05920   0.78810
C          C       0.20390   0.44080   0.78810
C          C       0.20390   0.55920   0.21190
C          C       0.79610   0.94080   0.21190
C          C       0.65060   0.41230   0.95320
C          C       0.34940   0.08770   0.95320
C          C       0.34940   0.91230   0.04680
C          C       0.65060   0.58770   0.04680
C          C       0.15060   0.91230   0.45320
C          C       0.84940   0.58770   0.45320
C          C       0.84940   0.41230   0.54680
C          C       0.15060   0.08770   0.54680
C          C       0.34940   0.58770   0.04680
C          C       0.65060   0.91230   0.04680
C          C       0.65060   0.08770   0.95320
C          C       0.34940   0.41230   0.95320
C          C       0.84940   0.08770   0.54680
C          C       0.15060   0.41230   0.54680
C          C       0.15060   0.58770   0.45320
C          C       0.84940   0.91230   0.45320
C          C       0.63540   0.39530   0.91800
C          C       0.36460   0.10470   0.91800
C          C       0.36460   0.89530   0.08200
C          C       0.63540   0.60470   0.08200
C          C       0.13540   0.89530   0.41800
C          C       0.86460   0.60470   0.41800
C          C       0.86460   0.39530   0.58200
C          C       0.13540   0.10470   0.58200
C          C       0.36460   0.60470   0.08200
C          C       0.63540   0.89530   0.08200
C          C       0.63540   0.10470   0.91800
C          C       0.36460   0.39530   0.91800
C          C       0.86460   0.10470   0.58200
C          C       0.13540   0.39530   0.58200
C          C       0.13540   0.60470   0.41800
C          C       0.86460   0.89530   0.41800
C          C       0.60750   0.36900   0.91720
C          C       0.39250   0.13100   0.91720
C          C       0.39250   0.86900   0.08280
C          C       0.60750   0.63100   0.08280
C          C       0.10750   0.86900   0.41720
C          C       0.89250   0.63100   0.41720
C          C       0.89250   0.36900   0.58280
C          C       0.10750   0.13100   0.58280
C          C       0.39250   0.63100   0.08280
C          C       0.60750   0.86900   0.08280
C          C       0.60750   0.13100   0.91720
C          C       0.39250   0.36900   0.91720
C          C       0.89250   0.13100   0.58280
C          C       0.10750   0.36900   0.58280
C          C       0.10750   0.63100   0.41720
C          C       0.89250   0.86900   0.41720
C          C       0.68640   0.45360   0.77910
C          C       0.31360   0.04640   0.77910
C          C       0.31360   0.95360   0.22090
C          C       0.68640   0.54640   0.22090
C          C       0.18640   0.95360   0.27910
C          C       0.81360   0.54640   0.27910
C          C       0.81360   0.45360   0.72090
C          C       0.18640   0.04640   0.72090
C          C       0.31360   0.54640   0.22090
C          C       0.68640   0.95360   0.22090
C          C       0.68640   0.04640   0.77910
C          C       0.31360   0.45360   0.77910
C          C       0.81360   0.04640   0.72090
C          C       0.18640   0.45360   0.72090
C          C       0.18640   0.54640   0.27910
C          C       0.81360   0.95360   0.27910
C          C       0.63060   0.42880   0.97980
C          C       0.36940   0.07120   0.97980
C          C       0.36940   0.92880   0.02020
C          C       0.63060   0.57120   0.02020
C          C       0.13060   0.92880   0.47980
C          C       0.86940   0.57120   0.47980
C          C       0.86940   0.42880   0.52020
C          C       0.13060   0.07120   0.52020
C          C       0.36940   0.57120   0.02020
C          C       0.63060   0.92880   0.02020
C          C       0.63060   0.07120   0.97980
C          C       0.36940   0.42880   0.97980
C          C       0.86940   0.07120   0.52020
C          C       0.13060   0.42880   0.52020
C          C       0.13060   0.57120   0.47980
C          C       0.86940   0.92880   0.47980
C          C       0.64450   0.44660   0.01030
C          C       0.35550   0.05340   0.01030
C          C       0.35550   0.94660   0.98970
C          C       0.64450   0.55340   0.98970
C          C       0.14450   0.94660   0.51030
C          C       0.85550   0.55340   0.51030
C          C       0.85550   0.44660   0.48970
C          C       0.14450   0.05340   0.48970
C          C       0.35550   0.55340   0.98970
C          C       0.64450   0.94660   0.98970
C          C       0.64450   0.05340   0.01030
C          C       0.35550   0.44660   0.01030
C          C       0.85550   0.05340   0.48970
C          C       0.14450   0.44660   0.48970
C          C       0.14450   0.55340   0.51030
C          C       0.85550   0.94660   0.51030
C          C       0.67050   0.44170   0.81150
C          C       0.32950   0.05830   0.81150
C          C       0.32950   0.94170   0.18850
C          C       0.67050   0.55830   0.18850
C          C       0.17050   0.94170   0.31150
C          C       0.82950   0.55830   0.31150
C          C       0.82950   0.44170   0.68850
C          C       0.17050   0.05830   0.68850
C          C       0.32950   0.55830   0.18850
C          C       0.67050   0.94170   0.18850
C          C       0.67050   0.05830   0.81150
C          C       0.32950   0.44170   0.81150
C          C       0.82950   0.05830   0.68850
C          C       0.17050   0.44170   0.68850
C          C       0.17050   0.55830   0.31150
C          C       0.82950   0.94170   0.31150
C          C       0.76770   0.48010   0.61150
C          C       0.23230   0.01990   0.61150
C          C       0.23230   0.98010   0.38850
C          C       0.76770   0.51990   0.38850
C          C       0.26770   0.98010   0.11150
C          C       0.73230   0.51990   0.11150
C          C       0.73230   0.48010   0.88850
C          C       0.26770   0.01990   0.88850
C          C       0.23230   0.51990   0.38850
C          C       0.76770   0.98010   0.38850
C          C       0.76770   0.01990   0.61150
C          C       0.23230   0.48010   0.61150
C          C       0.73230   0.01990   0.88850
C          C       0.26770   0.48010   0.88850
C          C       0.26770   0.51990   0.11150
C          C       0.73230   0.98010   0.11150
C          C       0.76640   0.51900   0.60350
C          C       0.23360   0.98100   0.60350
C          C       0.23360   0.01900   0.39650
C          C       0.76640   0.48100   0.39650
C          C       0.26640   0.01900   0.10350
C          C       0.73360   0.48100   0.10350
C          C       0.73360   0.51900   0.89650
C          C       0.26640   0.98100   0.89650
C          C       0.23360   0.48100   0.39650
C          C       0.76640   0.01900   0.39650
C          C       0.76640   0.98100   0.60350
C          C       0.23360   0.51900   0.60350
C          C       0.73360   0.98100   0.89650
C          C       0.26640   0.51900   0.89650
C          C       0.26640   0.48100   0.10350
C          C       0.73360   0.01900   0.10350
C          C       0.75160   0.46350   0.64220
C          C       0.24840   0.03650   0.64220
C          C       0.24840   0.96350   0.35780
C          C       0.75160   0.53650   0.35780
C          C       0.25160   0.96350   0.14220
C          C       0.74840   0.53650   0.14220
C          C       0.74840   0.46350   0.85780
C          C       0.25160   0.03650   0.85780
C          C       0.24840   0.53650   0.35780
C          C       0.75160   0.96350   0.35780
C          C       0.75160   0.03650   0.64220
C          C       0.24840   0.46350   0.64220
C          C       0.74840   0.03650   0.85780
C          C       0.25160   0.46350   0.85780
C          C       0.25160   0.53650   0.14220
C          C       0.74840   0.96350   0.14220
N          N       0.78030   0.53710   0.57060
N          N       0.21970   0.96290   0.57060
N          N       0.21970   0.03710   0.42940
N          N       0.78030   0.46290   0.42940
N          N       0.28030   0.03710   0.07060
N          N       0.71970   0.46290   0.07060
N          N       0.71970   0.53710   0.92940
N          N       0.28030   0.96290   0.92940
N          N       0.21970   0.46290   0.42940
N          N       0.78030   0.03710   0.42940
N          N       0.78030   0.96290   0.57060
N          N       0.21970   0.53710   0.57060
N          N       0.71970   0.96290   0.92940
N          N       0.28030   0.53710   0.92940
N          N       0.28030   0.46290   0.07060
N          N       0.71970   0.03710   0.07060
C          C       0.57430   0.28180   0.88520
C          C       0.42570   0.21820   0.88520
C          C       0.42570   0.78180   0.11480
C          C       0.57430   0.71820   0.11480
C          C       0.07430   0.78180   0.38520
C          C       0.92570   0.71820   0.38520
C          C       0.92570   0.28180   0.61480
C          C       0.07430   0.21820   0.61480
C          C       0.42570   0.71820   0.11480
C          C       0.57430   0.78180   0.11480
C          C       0.57430   0.21820   0.88520
C          C       0.42570   0.28180   0.88520
C          C       0.92570   0.21820   0.61480
C          C       0.07430   0.28180   0.61480
C          C       0.07430   0.71820   0.38520
C          C       0.92570   0.78180   0.38520
C          C       0.52860   0.33310   0.88580
C          C       0.47140   0.16690   0.88580
C          C       0.47140   0.83310   0.11420
C          C       0.52860   0.66690   0.11420
C          C       0.02860   0.83310   0.38580
C          C       0.97140   0.66690   0.38580
C          C       0.97140   0.33310   0.61420
C          C       0.02860   0.16690   0.61420
C          C       0.47140   0.66690   0.11420
C          C       0.52860   0.83310   0.11420
C          C       0.52860   0.16690   0.88580
C          C       0.47140   0.33310   0.88580
C          C       0.97140   0.16690   0.61420
C          C       0.02860   0.33310   0.61420
C          C       0.02860   0.66690   0.38580
C          C       0.97140   0.83310   0.38580
C          C       0.51750   0.36990   0.88600
C          C       0.48250   0.13010   0.88600
C          C       0.48250   0.86990   0.11400
C          C       0.51750   0.63010   0.11400
C          C       0.01750   0.86990   0.38600
C          C       0.98250   0.63010   0.38600
C          C       0.98250   0.36990   0.61400
C          C       0.01750   0.13010   0.61400
C          C       0.48250   0.63010   0.11400
C          C       0.51750   0.86990   0.11400
C          C       0.51750   0.13010   0.88600
C          C       0.48250   0.36990   0.88600
C          C       0.98250   0.13010   0.61400
C          C       0.01750   0.36990   0.61400
C          C       0.01750   0.63010   0.38600
C          C       0.98250   0.86990   0.38600
C          C       0.60730   0.26950   0.88470
C          C       0.39270   0.23050   0.88470
C          C       0.39270   0.76950   0.11530
C          C       0.60730   0.73050   0.11530
C          C       0.10730   0.76950   0.38470
C          C       0.89270   0.73050   0.38470
C          C       0.89270   0.26950   0.61530
C          C       0.10730   0.23050   0.61530
C          C       0.39270   0.73050   0.11530
C          C       0.60730   0.76950   0.11530
C          C       0.60730   0.23050   0.88470
C          C       0.39270   0.26950   0.88470
C          C       0.89270   0.23050   0.61530
C          C       0.10730   0.26950   0.61530
C          C       0.10730   0.73050   0.38470
C          C       0.89270   0.76950   0.38470
C          C       0.56450   0.32170   0.88550
C          C       0.43550   0.17830   0.88550
C          C       0.43550   0.82170   0.11450
C          C       0.56450   0.67830   0.11450
C          C       0.06450   0.82170   0.38550
C          C       0.93550   0.67830   0.38550
C          C       0.93550   0.32170   0.61450
C          C       0.06450   0.17830   0.61450
C          C       0.43550   0.67830   0.11450
C          C       0.56450   0.82170   0.11450
C          C       0.56450   0.17830   0.88550
C          C       0.43550   0.32170   0.88550
C          C       0.93550   0.17830   0.61450
C          C       0.06450   0.32170   0.61450
C          C       0.06450   0.67830   0.38550
C          C       0.93550   0.82170   0.38550
C          C       0.59390   0.35290   0.88520
C          C       0.40610   0.14710   0.88520
C          C       0.40610   0.85290   0.11480
C          C       0.59390   0.64710   0.11480
C          C       0.09390   0.85290   0.38520
C          C       0.90610   0.64710   0.38520
C          C       0.90610   0.35290   0.61480
C          C       0.09390   0.14710   0.61480
C          C       0.40610   0.64710   0.11480
C          C       0.59390   0.85290   0.11480
C          C       0.59390   0.14710   0.88520
C          C       0.40610   0.35290   0.88520
C          C       0.90610   0.14710   0.61480
C          C       0.09390   0.35290   0.61480
C          C       0.09390   0.64710   0.38520
C          C       0.90610   0.85290   0.38520
C          C       0.64900   0.40620   0.88470
C          C       0.35100   0.09380   0.88470
C          C       0.35100   0.90620   0.11530
C          C       0.64900   0.59380   0.11530
C          C       0.14900   0.90620   0.38470
C          C       0.85100   0.59380   0.38470
C          C       0.85100   0.40620   0.61530
C          C       0.14900   0.09380   0.61530
C          C       0.35100   0.59380   0.11530
C          C       0.64900   0.90620   0.11530
C          C       0.64900   0.09380   0.88470
C          C       0.35100   0.40620   0.88470
C          C       0.85100   0.09380   0.61530
C          C       0.14900   0.40620   0.61530
C          C       0.14900   0.59380   0.38470
C          C       0.85100   0.90620   0.38470
C          C       0.74490   0.58200   0.62230
C          C       0.25510   0.91800   0.62230
C          C       0.25510   0.08200   0.37770
C          C       0.74490   0.41800   0.37770
C          C       0.24490   0.08200   0.12230
C          C       0.75510   0.41800   0.12230
C          C       0.75510   0.58200   0.87770
C          C       0.24490   0.91800   0.87770
C          C       0.25510   0.41800   0.37770
C          C       0.74490   0.08200   0.37770
C          C       0.74490   0.91800   0.62230
C          C       0.25510   0.58200   0.62230
C          C       0.75510   0.91800   0.87770
C          C       0.24490   0.58200   0.87770
C          C       0.24490   0.41800   0.12230
C          C       0.75510   0.08200   0.12230
C          C       0.75430   0.42200   0.64710
C          C       0.24570   0.07800   0.64710
C          C       0.24570   0.92200   0.35290
C          C       0.75430   0.57800   0.35290
C          C       0.25430   0.92200   0.14710
C          C       0.74570   0.57800   0.14710
C          C       0.74570   0.42200   0.85290
C          C       0.25430   0.07800   0.85290
C          C       0.24570   0.57800   0.35290
C          C       0.75430   0.92200   0.35290
C          C       0.75430   0.07800   0.64710
C          C       0.24570   0.42200   0.64710
C          C       0.74570   0.07800   0.85290
C          C       0.25430   0.42200   0.85290
C          C       0.25430   0.57800   0.14710
C          C       0.74570   0.92200   0.14710
H          H       0.60020   0.35420   0.82870
H          H       0.39980   0.14580   0.82870
H          H       0.39980   0.85420   0.17130
H          H       0.60020   0.64580   0.17130
H          H       0.10020   0.85420   0.32870
H          H       0.89980   0.64580   0.32870
H          H       0.89980   0.35420   0.67130
H          H       0.10020   0.14580   0.67130
H          H       0.39980   0.64580   0.17130
H          H       0.60020   0.85420   0.17130
H          H       0.60020   0.14580   0.82870
H          H       0.39980   0.35420   0.82870
H          H       0.89980   0.14580   0.67130
H          H       0.10020   0.35420   0.67130
H          H       0.10020   0.64580   0.32870
H          H       0.89980   0.85420   0.32870
H          H       0.64260   0.35700   0.78510
H          H       0.35740   0.14300   0.78510
H          H       0.35740   0.85700   0.21490
H          H       0.64260   0.64300   0.21490
H          H       0.14260   0.85700   0.28510
H          H       0.85740   0.64300   0.28510
H          H       0.85740   0.35700   0.71490
H          H       0.14260   0.14300   0.71490
H          H       0.35740   0.64300   0.21490
H          H       0.64260   0.85700   0.21490
H          H       0.64260   0.14300   0.78510
H          H       0.35740   0.35700   0.78510
H          H       0.85740   0.14300   0.71490
H          H       0.14260   0.35700   0.71490
H          H       0.14260   0.64300   0.28510
H          H       0.85740   0.85700   0.28510
H          H       0.70300   0.40260   0.94120
H          H       0.29700   0.09740   0.94120
H          H       0.29700   0.90260   0.05880
H          H       0.70300   0.59740   0.05880
H          H       0.20300   0.90260   0.44120
H          H       0.79700   0.59740   0.44120
H          H       0.79700   0.40260   0.55880
H          H       0.20300   0.09740   0.55880
H          H       0.29700   0.59740   0.05880
H          H       0.70300   0.90260   0.05880
H          H       0.70300   0.09740   0.94120
H          H       0.29700   0.40260   0.94120
H          H       0.79700   0.09740   0.55880
H          H       0.20300   0.40260   0.55880
H          H       0.20300   0.59740   0.44120
H          H       0.79700   0.90260   0.44120
H          H       0.72040   0.54290   0.67750
H          H       0.27960   0.95710   0.67750
H          H       0.27960   0.04290   0.32250
H          H       0.72040   0.45710   0.32250
H          H       0.22040   0.04290   0.17750
H          H       0.77960   0.45710   0.17750
H          H       0.77960   0.54290   0.82250
H          H       0.22040   0.95710   0.82250
H          H       0.27960   0.45710   0.32250
H          H       0.72040   0.04290   0.32250
H          H       0.72040   0.95710   0.67750
H          H       0.27960   0.54290   0.67750
H          H       0.77960   0.95710   0.82250
H          H       0.22040   0.54290   0.82250
H          H       0.22040   0.45710   0.17750
H          H       0.77960   0.04290   0.17750
H          H       0.70230   0.41870   0.69290
H          H       0.29770   0.08130   0.69290
H          H       0.29770   0.91870   0.30710
H          H       0.70230   0.58130   0.30710
H          H       0.20230   0.91870   0.19290
H          H       0.79770   0.58130   0.19290
H          H       0.79770   0.41870   0.80710
H          H       0.20230   0.08130   0.80710
H          H       0.29770   0.58130   0.30710
H          H       0.70230   0.91870   0.30710
H          H       0.70230   0.08130   0.69290
H          H       0.29770   0.41870   0.69290
H          H       0.79770   0.08130   0.80710
H          H       0.20230   0.41870   0.80710
H          H       0.20230   0.58130   0.19290
H          H       0.79770   0.91870   0.19290
H          H       0.59670   0.36030   0.94190
H          H       0.40330   0.13970   0.94190
H          H       0.40330   0.86030   0.05810
H          H       0.59670   0.63970   0.05810
H          H       0.09670   0.86030   0.44190
H          H       0.90330   0.63970   0.44190
H          H       0.90330   0.36030   0.55810
H          H       0.09670   0.13970   0.55810
H          H       0.40330   0.63970   0.05810
H          H       0.59670   0.86030   0.05810
H          H       0.59670   0.13970   0.94190
H          H       0.40330   0.36030   0.94190
H          H       0.90330   0.13970   0.55810
H          H       0.09670   0.36030   0.55810
H          H       0.09670   0.63970   0.44190
H          H       0.90330   0.86030   0.44190
H          H       0.69860   0.48060   0.77840
H          H       0.30140   0.01940   0.77840
H          H       0.30140   0.98060   0.22160
H          H       0.69860   0.51940   0.22160
H          H       0.19860   0.98060   0.27840
H          H       0.80140   0.51940   0.27840
H          H       0.80140   0.48060   0.72160
H          H       0.19860   0.01940   0.72160
H          H       0.30140   0.51940   0.22160
H          H       0.69860   0.98060   0.22160
H          H       0.69860   0.01940   0.77840
H          H       0.30140   0.48060   0.77840
H          H       0.80140   0.01940   0.72160
H          H       0.19860   0.48060   0.72160
H          H       0.19860   0.51940   0.27840
H          H       0.80140   0.98060   0.27840
H          H       0.62730   0.45950   0.02860
H          H       0.37270   0.04050   0.02860
H          H       0.37270   0.95950   0.97140
H          H       0.62730   0.54050   0.97140
H          H       0.12730   0.95950   0.52860
H          H       0.87270   0.54050   0.52860
H          H       0.87270   0.45950   0.47140
H          H       0.12730   0.04050   0.47140
H          H       0.37270   0.54050   0.97140
H          H       0.62730   0.95950   0.97140
H          H       0.62730   0.04050   0.02860
H          H       0.37270   0.45950   0.02860
H          H       0.87270   0.04050   0.47140
H          H       0.12730   0.45950   0.47140
H          H       0.12730   0.54050   0.52860
H          H       0.87270   0.95950   0.52860
H          H       0.78060   0.46210   0.59310
H          H       0.21940   0.03790   0.59310
H          H       0.21940   0.96210   0.40690
H          H       0.78060   0.53790   0.40690
H          H       0.28060   0.96210   0.09310
H          H       0.71940   0.53790   0.09310
H          H       0.71940   0.46210   0.90690
H          H       0.28060   0.03790   0.90690
H          H       0.21940   0.53790   0.40690
H          H       0.78060   0.96210   0.40690
H          H       0.78060   0.03790   0.59310
H          H       0.21940   0.46210   0.59310
H          H       0.71940   0.03790   0.90690
H          H       0.28060   0.46210   0.90690
H          H       0.28060   0.53790   0.09310
H          H       0.71940   0.96210   0.09310
H          H       0.53320   0.39450   0.88620
H          H       0.46680   0.10550   0.88620
H          H       0.46680   0.89450   0.11380
H          H       0.53320   0.60550   0.11380
H          H       0.03320   0.89450   0.38620
H          H       0.96680   0.60550   0.38620
H          H       0.96680   0.39450   0.61380
H          H       0.03320   0.10550   0.61380
H          H       0.46680   0.60550   0.11380
H          H       0.53320   0.89450   0.11380
H          H       0.53320   0.10550   0.88620
H          H       0.46680   0.39450   0.88620
H          H       0.96680   0.10550   0.61380
H          H       0.03320   0.39450   0.61380
H          H       0.03320   0.60550   0.38620
H          H       0.96680   0.89450   0.38620
H          H       0.62950   0.28680   0.88440
H          H       0.37050   0.21320   0.88440
H          H       0.37050   0.78680   0.11560
H          H       0.62950   0.71320   0.11560
H          H       0.12950   0.78680   0.38440
H          H       0.87050   0.71320   0.38440
H          H       0.87050   0.28680   0.61560
H          H       0.12950   0.21320   0.61560
H          H       0.37050   0.71320   0.11560
H          H       0.62950   0.78680   0.11560
H          H       0.62950   0.21320   0.88440
H          H       0.37050   0.28680   0.88440
H          H       0.87050   0.21320   0.61560
H          H       0.12950   0.28680   0.61560
H          H       0.12950   0.71320   0.38440
H          H       0.87050   0.78680   0.38440
H          H       0.66940   0.42590   0.88480
H          H       0.33060   0.07410   0.88480
H          H       0.33060   0.92590   0.11520
H          H       0.66940   0.57410   0.11520
H          H       0.16940   0.92590   0.38480
H          H       0.83060   0.57410   0.38480
H          H       0.83060   0.42590   0.61520
H          H       0.16940   0.07410   0.61520
H          H       0.33060   0.57410   0.11520
H          H       0.66940   0.92590   0.11520
H          H       0.66940   0.07410   0.88480
H          H       0.33060   0.42590   0.88480
H          H       0.83060   0.07410   0.61520
H          H       0.16940   0.42590   0.61520
H          H       0.16940   0.57410   0.38480
H          H       0.83060   0.92590   0.38480
H          H       0.73040   0.59580   0.64360
H          H       0.26960   0.90420   0.64360
H          H       0.26960   0.09580   0.35640
H          H       0.73040   0.40420   0.35640
H          H       0.23040   0.09580   0.14360
H          H       0.76960   0.40420   0.14360
H          H       0.76960   0.59580   0.85640
H          H       0.23040   0.90420   0.85640
H          H       0.26960   0.40420   0.35640
H          H       0.73040   0.09580   0.35640
H          H       0.73040   0.90420   0.64360
H          H       0.26960   0.59580   0.64360
H          H       0.76960   0.90420   0.85640
H          H       0.23040   0.59580   0.85640
H          H       0.23040   0.40420   0.14360
H          H       0.76960   0.09580   0.14360
H          H       0.73170   0.58720   0.59720
H          H       0.26830   0.91280   0.59720
H          H       0.26830   0.08720   0.40280
H          H       0.73170   0.41280   0.40280
H          H       0.23170   0.08720   0.09720
H          H       0.76830   0.41280   0.09720
H          H       0.76830   0.58720   0.90280
H          H       0.23170   0.91280   0.90280
H          H       0.26830   0.41280   0.40280
H          H       0.73170   0.08720   0.40280
H          H       0.73170   0.91280   0.59720
H          H       0.26830   0.58720   0.59720
H          H       0.76830   0.91280   0.90280
H          H       0.23170   0.58720   0.90280
H          H       0.23170   0.41280   0.09720
H          H       0.76830   0.08720   0.09720
H          H       0.77010   0.59500   0.62130
H          H       0.22990   0.90500   0.62130
H          H       0.22990   0.09500   0.37870
H          H       0.77010   0.40500   0.37870
H          H       0.27010   0.09500   0.12130
H          H       0.72990   0.40500   0.12130
H          H       0.72990   0.59500   0.87870
H          H       0.27010   0.90500   0.87870
H          H       0.22990   0.40500   0.37870
H          H       0.77010   0.09500   0.37870
H          H       0.77010   0.90500   0.62130
H          H       0.22990   0.59500   0.62130
H          H       0.72990   0.90500   0.87870
H          H       0.27010   0.59500   0.87870
H          H       0.27010   0.40500   0.12130
H          H       0.72990   0.09500   0.12130
H          H       0.72960   0.40890   0.64180
H          H       0.27040   0.09110   0.64180
H          H       0.27040   0.90890   0.35820
H          H       0.72960   0.59110   0.35820
H          H       0.22960   0.90890   0.14180
H          H       0.77040   0.59110   0.14180
H          H       0.77040   0.40890   0.85820
H          H       0.22960   0.09110   0.85820
H          H       0.27040   0.59110   0.35820
H          H       0.72960   0.90890   0.35820
H          H       0.72960   0.09110   0.64180
H          H       0.27040   0.40890   0.64180
H          H       0.77040   0.09110   0.85820
H          H       0.22960   0.40890   0.85820
H          H       0.22960   0.59110   0.14180
H          H       0.77040   0.90890   0.14180
H          H       0.76260   0.41540   0.67410
H          H       0.23740   0.08460   0.67410
H          H       0.23740   0.91540   0.32590
H          H       0.76260   0.58460   0.32590
H          H       0.26260   0.91540   0.17410
H          H       0.73740   0.58460   0.17410
H          H       0.73740   0.41540   0.82590
H          H       0.26260   0.08460   0.82590
H          H       0.23740   0.58460   0.32590
H          H       0.76260   0.91540   0.32590
H          H       0.76260   0.08460   0.67410
H          H       0.23740   0.41540   0.67410
H          H       0.73740   0.08460   0.82590
H          H       0.26260   0.41540   0.82590
H          H       0.26260   0.58460   0.17410
H          H       0.73740   0.91540   0.17410
H          H       0.77260   0.40950   0.62860
H          H       0.22740   0.09050   0.62860
H          H       0.22740   0.90950   0.37140
H          H       0.77260   0.59050   0.37140
H          H       0.27260   0.90950   0.12860
H          H       0.72740   0.59050   0.12860
H          H       0.72740   0.40950   0.87140
H          H       0.27260   0.09050   0.87140
H          H       0.22740   0.59050   0.37140
H          H       0.77260   0.90950   0.37140
H          H       0.77260   0.09050   0.62860
H          H       0.22740   0.40950   0.62860
H          H       0.72740   0.09050   0.87140
H          H       0.27260   0.40950   0.87140
H          H       0.27260   0.59050   0.12860
H          H       0.72740   0.90950   0.12860
H          H       0.82310   0.50670   0.55950
H          H       0.17690   0.99330   0.55950
H          H       0.17690   0.00670   0.44050
H          H       0.82310   0.49330   0.44050
H          H       0.32310   0.00670   0.05950
H          H       0.67690   0.49330   0.05950
H          H       0.67690   0.50670   0.94050
H          H       0.32310   0.99330   0.94050
H          H       0.17690   0.49330   0.44050
H          H       0.82310   0.00670   0.44050
H          H       0.82310   0.99330   0.55950
H          H       0.17690   0.50670   0.55950
H          H       0.67690   0.99330   0.94050
H          H       0.32310   0.50670   0.94050
H          H       0.32310   0.49330   0.05950
H          H       0.67690   0.00670   0.05950
H          H       0.72680   0.43170   0.99460
H          H       0.27320   0.06830   0.99460
H          H       0.27320   0.93170   0.00540
H          H       0.72680   0.56830   0.00540
H          H       0.22680   0.93170   0.49460
H          H       0.77320   0.56830   0.49460
H          H       0.77320   0.43170   0.50540
H          H       0.22680   0.06830   0.50540
H          H       0.27320   0.56830   0.00540
H          H       0.72680   0.93170   0.00540
H          H       0.72680   0.06830   0.99460
H          H       0.27320   0.43170   0.99460
H          H       0.77320   0.06830   0.50540
H          H       0.22680   0.43170   0.50540
H          H       0.22680   0.56830   0.49460
H          H       0.77320   0.93170   0.49460
H          H       0.66940   0.37710   0.73070
H          H       0.33060   0.12290   0.73070
H          H       0.33060   0.87710   0.26930
H          H       0.66940   0.62290   0.26930
H          H       0.16940   0.87710   0.23070
H          H       0.83060   0.62290   0.23070
H          H       0.83060   0.37710   0.76930
H          H       0.16940   0.12290   0.76930
H          H       0.33060   0.62290   0.26930
H          H       0.66940   0.87710   0.26930
H          H       0.66940   0.12290   0.73070
H          H       0.33060   0.37710   0.73070
H          H       0.83060   0.12290   0.76930
H          H       0.16940   0.37710   0.76930
H          H       0.16940   0.62290   0.23070
H          H       0.83060   0.87710   0.23070
H          H       0.60360   0.42900   0.97640
H          H       0.39640   0.07100   0.97640
H          H       0.39640   0.92900   0.02360
H          H       0.60360   0.57100   0.02360
H          H       0.10360   0.92900   0.47640
H          H       0.89640   0.57100   0.47640
H          H       0.89640   0.42900   0.52360
H          H       0.10360   0.07100   0.52360
H          H       0.39640   0.57100   0.02360
H          H       0.60360   0.92900   0.02360
H          H       0.60360   0.07100   0.97640
H          H       0.39640   0.42900   0.97640
H          H       0.89640   0.07100   0.52360
H          H       0.10360   0.42900   0.52360
H          H       0.10360   0.57100   0.47640
H          H       0.89640   0.92900   0.47640
H          H       0.67130   0.46070   0.83340
H          H       0.32870   0.03930   0.83340
H          H       0.32870   0.96070   0.16660
H          H       0.67130   0.53930   0.16660
H          H       0.17130   0.96070   0.33340
H          H       0.82870   0.53930   0.33340
H          H       0.82870   0.46070   0.66660
H          H       0.17130   0.03930   0.66660
H          H       0.32870   0.53930   0.16660
H          H       0.67130   0.96070   0.16660
H          H       0.67130   0.03930   0.83340
H          H       0.32870   0.46070   0.83340
H          H       0.82870   0.03930   0.66660
H          H       0.17130   0.46070   0.66660
H          H       0.17130   0.53930   0.33340
H          H       0.82870   0.96070   0.33340
N          N       0.55430   0.25000   0.88550
N          N       0.44570   0.25000   0.88550
N          N       0.44570   0.75000   0.11450
N          N       0.55430   0.75000   0.11450
N          N       0.05430   0.75000   0.38550
N          N       0.94570   0.75000   0.38550
N          N       0.94570   0.25000   0.61450
N          N       0.05430   0.25000   0.61450
H          H       0.52840   0.25000   0.88610
H          H       0.47160   0.25000   0.88610
H          H       0.47160   0.75000   0.11390
H          H       0.52840   0.75000   0.11390
H          H       0.02840   0.75000   0.38610
H          H       0.97160   0.75000   0.38610
H          H       0.97160   0.25000   0.61390
H          H       0.02840   0.25000   0.61390
N          N       0.50000   0.31080   0.88560
N          N       0.50000   0.18920   0.88560
N          N       0.50000   0.81080   0.11440
N          N       0.50000   0.68920   0.11440
N          N       0.00000   0.81080   0.38560
N          N       0.00000   0.68920   0.38560
N          N       0.00000   0.31080   0.61440
N          N       0.00000   0.18920   0.61440
