data_crystal

_cell_length_a    39.36000
_cell_length_b    35.81000
_cell_length_c    37.54000
_cell_angle_alpha 90.00000
_cell_angle_beta  90.00000
_cell_angle_gamma 90.00000

_space_group_name_Hall 'P 1'
_space_group_name_H-M_alt 'P 1'

loop_
_symmetry_equiv_pos_as_xyz
 'x,y,z'

loop_
_atom_site_label
_atom_site_type_symbol
_atom_site_fract_x
_atom_site_fract_y
_atom_site_fract_z
C          C       0.17190   0.43690   0.72950
C          C       0.82810   0.06310   0.72950
C          C       0.82810   0.93690   0.27050
C          C       0.17190   0.56310   0.27050
C          C       0.67190   0.93690   0.22950
C          C       0.32810   0.56310   0.22950
C          C       0.32810   0.43690   0.77050
C          C       0.67190   0.06310   0.77050
C          C       0.82810   0.56310   0.27050
C          C       0.17190   0.93690   0.27050
C          C       0.17190   0.06310   0.72950
C          C       0.82810   0.43690   0.72950
C          C       0.32810   0.06310   0.77050
C          C       0.67190   0.43690   0.77050
C          C       0.67190   0.56310   0.22950
C          C       0.32810   0.93690   0.22950
C          C       0.29700   0.56530   0.55380
C          C       0.70300   0.93470   0.55380
C          C       0.70300   0.06530   0.44620
C          C       0.29700   0.43470   0.44620
C          C       0.79700   0.06530   0.05380
C          C       0.20300   0.43470   0.05380
C          C       0.20300   0.56530   0.94620
C          C       0.79700   0.93470   0.94620
C          C       0.70300   0.43470   0.44620
C          C       0.29700   0.06530   0.44620
C          C       0.29700   0.93470   0.55380
C          C       0.70300   0.56530   0.55380
C          C       0.20300   0.93470   0.94620
C          C       0.79700   0.56530   0.94620
C          C       0.79700   0.43470   0.05380
C          C       0.20300   0.06530   0.05380
C          C       0.14770   0.40410   0.79980
C          C       0.85230   0.09590   0.79980
C          C       0.85230   0.90410   0.20020
C          C       0.14770   0.59590   0.20020
C          C       0.64770   0.90410   0.29980
C          C       0.35230   0.59590   0.29980
C          C       0.35230   0.40410   0.70020
C          C       0.64770   0.09590   0.70020
C          C       0.85230   0.59590   0.20020
C          C       0.14770   0.90410   0.20020
C          C       0.14770   0.09590   0.79980
C          C       0.85230   0.40410   0.79980
C          C       0.35230   0.09590   0.70020
C          C       0.64770   0.40410   0.70020
C          C       0.64770   0.59590   0.29980
C          C       0.35230   0.90410   0.29980
C          C       0.13500   0.38750   0.83720
C          C       0.86500   0.11250   0.83720
C          C       0.86500   0.88750   0.16280
C          C       0.13500   0.61250   0.16280
C          C       0.63500   0.88750   0.33720
C          C       0.36500   0.61250   0.33720
C          C       0.36500   0.38750   0.66280
C          C       0.63500   0.11250   0.66280
C          C       0.86500   0.61250   0.16280
C          C       0.13500   0.88750   0.16280
C          C       0.13500   0.11250   0.83720
C          C       0.86500   0.38750   0.83720
C          C       0.36500   0.11250   0.66280
C          C       0.63500   0.38750   0.66280
C          C       0.63500   0.61250   0.33720
C          C       0.36500   0.88750   0.33720
C          C       0.10880   0.35940   0.83740
C          C       0.89120   0.14060   0.83740
C          C       0.89120   0.85940   0.16260
C          C       0.10880   0.64060   0.16260
C          C       0.60880   0.85940   0.33740
C          C       0.39120   0.64060   0.33740
C          C       0.39120   0.35940   0.66260
C          C       0.60880   0.14060   0.66260
C          C       0.89120   0.64060   0.16260
C          C       0.10880   0.85940   0.16260
C          C       0.10880   0.14060   0.83740
C          C       0.89120   0.35940   0.83740
C          C       0.39120   0.14060   0.66260
C          C       0.60880   0.35940   0.66260
C          C       0.60880   0.64060   0.33740
C          C       0.39120   0.85940   0.33740
C          C       0.18170   0.44560   0.98500
C          C       0.81830   0.05440   0.98500
C          C       0.81830   0.94560   0.01500
C          C       0.18170   0.55440   0.01500
C          C       0.68170   0.94560   0.48500
C          C       0.31830   0.55440   0.48500
C          C       0.31830   0.44560   0.51500
C          C       0.68170   0.05440   0.51500
C          C       0.81830   0.55440   0.01500
C          C       0.18170   0.94560   0.01500
C          C       0.18170   0.05440   0.98500
C          C       0.81830   0.44560   0.98500
C          C       0.31830   0.05440   0.51500
C          C       0.68170   0.44560   0.51500
C          C       0.68170   0.55440   0.48500
C          C       0.31830   0.94560   0.48500
C          C       0.12420   0.40630   0.76700
C          C       0.87580   0.09370   0.76700
C          C       0.87580   0.90630   0.23300
C          C       0.12420   0.59370   0.23300
C          C       0.62420   0.90630   0.26700
C          C       0.37580   0.59370   0.26700
C          C       0.37580   0.40630   0.73300
C          C       0.62420   0.09370   0.73300
C          C       0.87580   0.59370   0.23300
C          C       0.12420   0.90630   0.23300
C          C       0.12420   0.09370   0.76700
C          C       0.87580   0.40630   0.76700
C          C       0.37580   0.09370   0.73300
C          C       0.62420   0.40630   0.73300
C          C       0.62420   0.59370   0.26700
C          C       0.37580   0.90630   0.26700
C          C       0.13640   0.42210   0.73210
C          C       0.86360   0.07790   0.73210
C          C       0.86360   0.92210   0.26790
C          C       0.13640   0.57790   0.26790
C          C       0.63640   0.92210   0.23210
C          C       0.36360   0.57790   0.23210
C          C       0.36360   0.42210   0.76790
C          C       0.63640   0.07790   0.76790
C          C       0.86360   0.57790   0.26790
C          C       0.13640   0.92210   0.26790
C          C       0.13640   0.07790   0.73210
C          C       0.86360   0.42210   0.73210
C          C       0.36360   0.07790   0.76790
C          C       0.63640   0.42210   0.76790
C          C       0.63640   0.57790   0.23210
C          C       0.36360   0.92210   0.23210
C          C       0.16490   0.43380   0.95070
C          C       0.83510   0.06620   0.95070
C          C       0.83510   0.93380   0.04930
C          C       0.16490   0.56620   0.04930
C          C       0.66490   0.93380   0.45070
C          C       0.33510   0.56620   0.45070
C          C       0.33510   0.43380   0.54930
C          C       0.66490   0.06620   0.54930
C          C       0.83510   0.56620   0.04930
C          C       0.16490   0.93380   0.04930
C          C       0.16490   0.06620   0.95070
C          C       0.83510   0.43380   0.95070
C          C       0.33510   0.06620   0.54930
C          C       0.66490   0.43380   0.54930
C          C       0.66490   0.56620   0.45070
C          C       0.33510   0.93380   0.45070
C          C       0.25930   0.51230   0.66100
C          C       0.74070   0.98770   0.66100
C          C       0.74070   0.01230   0.33900
C          C       0.25930   0.48770   0.33900
C          C       0.75930   0.01230   0.16100
C          C       0.24070   0.48770   0.16100
C          C       0.24070   0.51230   0.83900
C          C       0.75930   0.98770   0.83900
C          C       0.74070   0.48770   0.33900
C          C       0.25930   0.01230   0.33900
C          C       0.25930   0.98770   0.66100
C          C       0.74070   0.51230   0.66100
C          C       0.24070   0.98770   0.83900
C          C       0.75930   0.51230   0.83900
C          C       0.75930   0.48770   0.16100
C          C       0.24070   0.01230   0.16100
C          C       0.23260   0.48540   0.65630
C          C       0.76740   0.01460   0.65630
C          C       0.76740   0.98540   0.34370
C          C       0.23260   0.51460   0.34370
C          C       0.73260   0.98540   0.15630
C          C       0.26740   0.51460   0.15630
C          C       0.26740   0.48540   0.84370
C          C       0.73260   0.01460   0.84370
C          C       0.76740   0.51460   0.34370
C          C       0.23260   0.98540   0.34370
C          C       0.23260   0.01460   0.65630
C          C       0.76740   0.48540   0.65630
C          C       0.26740   0.01460   0.84370
C          C       0.73260   0.48540   0.84370
C          C       0.73260   0.51460   0.15630
C          C       0.26740   0.98540   0.15630
C          C       0.27580   0.52860   0.62850
C          C       0.72420   0.97140   0.62850
C          C       0.72420   0.02860   0.37150
C          C       0.27580   0.47140   0.37150
C          C       0.77580   0.02860   0.12850
C          C       0.22420   0.47140   0.12850
C          C       0.22420   0.52860   0.87150
C          C       0.77580   0.97140   0.87150
C          C       0.72420   0.47140   0.37150
C          C       0.27580   0.02860   0.37150
C          C       0.27580   0.97140   0.62850
C          C       0.72420   0.52860   0.62850
C          C       0.22420   0.97140   0.87150
C          C       0.77580   0.52860   0.87150
C          C       0.77580   0.47140   0.12850
C          C       0.22420   0.02860   0.12850
N          N       0.21650   0.46950   0.69060
N          N       0.78350   0.03050   0.69060
N          N       0.78350   0.96950   0.30940
N          N       0.21650   0.53050   0.30940
N          N       0.71650   0.96950   0.19060
N          N       0.28350   0.53050   0.19060
N          N       0.28350   0.46950   0.80940
N          N       0.71650   0.03050   0.80940
N          N       0.78350   0.53050   0.30940
N          N       0.21650   0.96950   0.30940
N          N       0.21650   0.03050   0.69060
N          N       0.78350   0.46950   0.69060
N          N       0.28350   0.03050   0.80940
N          N       0.71650   0.46950   0.80940
N          N       0.71650   0.53050   0.19060
N          N       0.28350   0.96950   0.19060
C          C       0.18620   0.42200   0.01680
C          C       0.81380   0.07800   0.01680
C          C       0.81380   0.92200   0.98320
C          C       0.18620   0.57800   0.98320
C          C       0.68620   0.92200   0.51680
C          C       0.31380   0.57800   0.51680
C          C       0.31380   0.42200   0.48320
C          C       0.68620   0.07800   0.48320
C          C       0.81380   0.57800   0.98320
C          C       0.18620   0.92200   0.98320
C          C       0.18620   0.07800   0.01680
C          C       0.81380   0.42200   0.01680
C          C       0.31380   0.07800   0.48320
C          C       0.68620   0.42200   0.48320
C          C       0.68620   0.57800   0.51680
C          C       0.31380   0.92200   0.51680
C          C       0.18480   0.45310   0.69240
C          C       0.81520   0.04690   0.69240
C          C       0.81520   0.95310   0.30760
C          C       0.18480   0.54690   0.30760
C          C       0.68480   0.95310   0.19240
C          C       0.31520   0.54690   0.19240
C          C       0.31520   0.45310   0.80760
C          C       0.68480   0.04690   0.80760
C          C       0.81520   0.54690   0.30760
C          C       0.18480   0.95310   0.30760
C          C       0.18480   0.04690   0.69240
C          C       0.81520   0.45310   0.69240
C          C       0.31520   0.04690   0.80760
C          C       0.68480   0.45310   0.80760
C          C       0.68480   0.54690   0.19240
C          C       0.31520   0.95310   0.19240
C          C       0.15340   0.39770   0.94660
C          C       0.84660   0.10230   0.94660
C          C       0.84660   0.89770   0.05340
C          C       0.15340   0.60230   0.05340
C          C       0.65340   0.89770   0.44660
C          C       0.34660   0.60230   0.44660
C          C       0.34660   0.39770   0.55340
C          C       0.65340   0.10230   0.55340
C          C       0.84660   0.60230   0.05340
C          C       0.15340   0.89770   0.05340
C          C       0.15340   0.10230   0.94660
C          C       0.84660   0.39770   0.94660
C          C       0.34660   0.10230   0.55340
C          C       0.65340   0.39770   0.55340
C          C       0.65340   0.60230   0.44660
C          C       0.34660   0.89770   0.44660
C          C       0.13740   0.38470   0.90890
C          C       0.86260   0.11530   0.90890
C          C       0.86260   0.88470   0.09110
C          C       0.13740   0.61530   0.09110
C          C       0.63740   0.88470   0.40890
C          C       0.36260   0.61530   0.40890
C          C       0.36260   0.38470   0.59110
C          C       0.63740   0.11530   0.59110
C          C       0.86260   0.61530   0.09110
C          C       0.13740   0.88470   0.09110
C          C       0.13740   0.11530   0.90890
C          C       0.86260   0.38470   0.90890
C          C       0.36260   0.11530   0.59110
C          C       0.63740   0.38470   0.59110
C          C       0.63740   0.61530   0.40890
C          C       0.36260   0.88470   0.40890
C          C       0.11060   0.35720   0.90820
C          C       0.88940   0.14280   0.90820
C          C       0.88940   0.85720   0.09180
C          C       0.11060   0.64280   0.09180
C          C       0.61060   0.85720   0.40820
C          C       0.38940   0.64280   0.40820
C          C       0.38940   0.35720   0.59180
C          C       0.61060   0.14280   0.59180
C          C       0.88940   0.64280   0.09180
C          C       0.11060   0.85720   0.09180
C          C       0.11060   0.14280   0.90820
C          C       0.88940   0.35720   0.90820
C          C       0.38940   0.14280   0.59180
C          C       0.61060   0.35720   0.59180
C          C       0.61060   0.64280   0.40820
C          C       0.38940   0.85720   0.40820
C          C       0.19500   0.43560   0.76240
C          C       0.80500   0.06440   0.76240
C          C       0.80500   0.93560   0.23760
C          C       0.19500   0.56440   0.23760
C          C       0.69500   0.93560   0.26240
C          C       0.30500   0.56440   0.26240
C          C       0.30500   0.43560   0.73760
C          C       0.69500   0.06440   0.73760
C          C       0.80500   0.56440   0.23760
C          C       0.19500   0.93560   0.23760
C          C       0.19500   0.06440   0.76240
C          C       0.80500   0.43560   0.76240
C          C       0.30500   0.06440   0.73760
C          C       0.69500   0.43560   0.73760
C          C       0.69500   0.56440   0.26240
C          C       0.30500   0.93560   0.26240
C          C       0.15850   0.37390   0.97830
C          C       0.84150   0.12610   0.97830
C          C       0.84150   0.87390   0.02170
C          C       0.15850   0.62610   0.02170
C          C       0.65850   0.87390   0.47830
C          C       0.34150   0.62610   0.47830
C          C       0.34150   0.37390   0.52170
C          C       0.65850   0.12610   0.52170
C          C       0.84150   0.62610   0.02170
C          C       0.15850   0.87390   0.02170
C          C       0.15850   0.12610   0.97830
C          C       0.84150   0.37390   0.97830
C          C       0.34150   0.12610   0.52170
C          C       0.65850   0.37390   0.52170
C          C       0.65850   0.62610   0.47830
C          C       0.34150   0.87390   0.47830
C          C       0.17440   0.38610   0.01320
C          C       0.82560   0.11390   0.01320
C          C       0.82560   0.88610   0.98680
C          C       0.17440   0.61390   0.98680
C          C       0.67440   0.88610   0.51320
C          C       0.32560   0.61390   0.51320
C          C       0.32560   0.38610   0.48680
C          C       0.67440   0.11390   0.48680
C          C       0.82560   0.61390   0.98680
C          C       0.17440   0.88610   0.98680
C          C       0.17440   0.11390   0.01320
C          C       0.82560   0.38610   0.01320
C          C       0.32560   0.11390   0.48680
C          C       0.67440   0.38610   0.48680
C          C       0.67440   0.61390   0.51320
C          C       0.32560   0.88610   0.51320
C          C       0.18350   0.41870   0.79660
C          C       0.81650   0.08130   0.79660
C          C       0.81650   0.91870   0.20340
C          C       0.18350   0.58130   0.20340
C          C       0.68350   0.91870   0.29660
C          C       0.31650   0.58130   0.29660
C          C       0.31650   0.41870   0.70340
C          C       0.68350   0.08130   0.70340
C          C       0.81650   0.58130   0.20340
C          C       0.18350   0.91870   0.20340
C          C       0.18350   0.08130   0.79660
C          C       0.81650   0.41870   0.79660
C          C       0.31650   0.08130   0.70340
C          C       0.68350   0.41870   0.70340
C          C       0.68350   0.58130   0.29660
C          C       0.31650   0.91870   0.29660
C          C       0.24040   0.48970   0.58580
C          C       0.75960   0.01030   0.58580
C          C       0.75960   0.98970   0.41420
C          C       0.24040   0.51030   0.41420
C          C       0.74040   0.98970   0.08580
C          C       0.25960   0.51030   0.08580
C          C       0.25960   0.48970   0.91420
C          C       0.74040   0.01030   0.91420
C          C       0.75960   0.51030   0.41420
C          C       0.24040   0.98970   0.41420
C          C       0.24040   0.01030   0.58580
C          C       0.75960   0.48970   0.58580
C          C       0.25960   0.01030   0.91420
C          C       0.74040   0.48970   0.91420
C          C       0.74040   0.51030   0.08580
C          C       0.25960   0.98970   0.08580
C          C       0.26590   0.51770   0.59050
C          C       0.73410   0.98230   0.59050
C          C       0.73410   0.01770   0.40950
C          C       0.26590   0.48230   0.40950
C          C       0.76590   0.01770   0.09050
C          C       0.23410   0.48230   0.09050
C          C       0.23410   0.51770   0.90950
C          C       0.76590   0.98230   0.90950
C          C       0.73410   0.48230   0.40950
C          C       0.26590   0.01770   0.40950
C          C       0.26590   0.98230   0.59050
C          C       0.73410   0.51770   0.59050
C          C       0.23410   0.98230   0.90950
C          C       0.76590   0.51770   0.90950
C          C       0.76590   0.48230   0.09050
C          C       0.23410   0.01770   0.09050
C          C       0.22350   0.47370   0.61830
C          C       0.77650   0.02630   0.61830
C          C       0.77650   0.97370   0.38170
C          C       0.22350   0.52630   0.38170
C          C       0.72350   0.97370   0.11830
C          C       0.27650   0.52630   0.11830
C          C       0.27650   0.47370   0.88170
C          C       0.72350   0.02630   0.88170
C          C       0.77650   0.52630   0.38170
C          C       0.22350   0.97370   0.38170
C          C       0.22350   0.02630   0.61830
C          C       0.77650   0.47370   0.61830
C          C       0.27650   0.02630   0.88170
C          C       0.72350   0.47370   0.88170
C          C       0.72350   0.52630   0.11830
C          C       0.27650   0.97370   0.11830
N          N       0.28230   0.53340   0.55620
N          N       0.71770   0.96660   0.55620
N          N       0.71770   0.03340   0.44380
N          N       0.28230   0.46660   0.44380
N          N       0.78230   0.03340   0.05620
N          N       0.21770   0.46660   0.05620
N          N       0.21770   0.53340   0.94380
N          N       0.78230   0.96660   0.94380
N          N       0.71770   0.46660   0.44380
N          N       0.28230   0.03340   0.44380
N          N       0.28230   0.96660   0.55620
N          N       0.71770   0.53340   0.55620
N          N       0.21770   0.96660   0.94380
N          N       0.78230   0.53340   0.94380
N          N       0.78230   0.46660   0.05620
N          N       0.21770   0.03340   0.05620
C          C       0.08040   0.27940   0.87280
C          C       0.91960   0.22060   0.87280
C          C       0.91960   0.77940   0.12720
C          C       0.08040   0.72060   0.12720
C          C       0.58040   0.77940   0.37280
C          C       0.41960   0.72060   0.37280
C          C       0.41960   0.27940   0.62720
C          C       0.58040   0.22060   0.62720
C          C       0.91960   0.72060   0.12720
C          C       0.08040   0.77940   0.12720
C          C       0.08040   0.22060   0.87280
C          C       0.91960   0.27940   0.87280
C          C       0.41960   0.22060   0.62720
C          C       0.58040   0.27940   0.62720
C          C       0.58040   0.72060   0.37280
C          C       0.41960   0.77940   0.37280
C          C       0.03080   0.32580   0.87200
C          C       0.96920   0.17420   0.87200
C          C       0.96920   0.82580   0.12800
C          C       0.03080   0.67420   0.12800
C          C       0.53080   0.82580   0.37200
C          C       0.46920   0.67420   0.37200
C          C       0.46920   0.32580   0.62800
C          C       0.53080   0.17420   0.62800
C          C       0.96920   0.67420   0.12800
C          C       0.03080   0.82580   0.12800
C          C       0.03080   0.17420   0.87200
C          C       0.96920   0.32580   0.87200
C          C       0.46920   0.17420   0.62800
C          C       0.53080   0.32580   0.62800
C          C       0.53080   0.67420   0.37200
C          C       0.46920   0.82580   0.37200
C          C       0.01890   0.36140   0.87170
C          C       0.98110   0.13860   0.87170
C          C       0.98110   0.86140   0.12830
C          C       0.01890   0.63860   0.12830
C          C       0.51890   0.86140   0.37170
C          C       0.48110   0.63860   0.37170
C          C       0.48110   0.36140   0.62830
C          C       0.51890   0.13860   0.62830
C          C       0.98110   0.63860   0.12830
C          C       0.01890   0.86140   0.12830
C          C       0.01890   0.13860   0.87170
C          C       0.98110   0.36140   0.87170
C          C       0.48110   0.13860   0.62830
C          C       0.51890   0.36140   0.62830
C          C       0.51890   0.63860   0.37170
C          C       0.48110   0.86140   0.37170
C          C       0.11720   0.26940   0.87330
C          C       0.88280   0.23060   0.87330
C          C       0.88280   0.76940   0.12670
C          C       0.11720   0.73060   0.12670
C          C       0.61720   0.76940   0.37330
C          C       0.38280   0.73060   0.37330
C          C       0.38280   0.26940   0.62670
C          C       0.61720   0.23060   0.62670
C          C       0.88280   0.73060   0.12670
C          C       0.11720   0.76940   0.12670
C          C       0.11720   0.23060   0.87330
C          C       0.88280   0.26940   0.87330
C          C       0.38280   0.23060   0.62670
C          C       0.61720   0.26940   0.62670
C          C       0.61720   0.73060   0.37330
C          C       0.38280   0.76940   0.37330
C          C       0.06830   0.31560   0.87250
C          C       0.93170   0.18440   0.87250
C          C       0.93170   0.81560   0.12750
C          C       0.06830   0.68440   0.12750
C          C       0.56830   0.81560   0.37250
C          C       0.43170   0.68440   0.37250
C          C       0.43170   0.31560   0.62750
C          C       0.56830   0.18440   0.62750
C          C       0.93170   0.68440   0.12750
C          C       0.06830   0.81560   0.12750
C          C       0.06830   0.18440   0.87250
C          C       0.93170   0.31560   0.87250
C          C       0.43170   0.18440   0.62750
C          C       0.56830   0.31560   0.62750
C          C       0.56830   0.68440   0.37250
C          C       0.43170   0.81560   0.37250
C          C       0.09650   0.34460   0.87270
C          C       0.90350   0.15540   0.87270
C          C       0.90350   0.84460   0.12730
C          C       0.09650   0.65540   0.12730
C          C       0.59650   0.84460   0.37270
C          C       0.40350   0.65540   0.37270
C          C       0.40350   0.34460   0.62730
C          C       0.59650   0.15540   0.62730
C          C       0.90350   0.65540   0.12730
C          C       0.09650   0.84460   0.12730
C          C       0.09650   0.15540   0.87270
C          C       0.90350   0.34460   0.87270
C          C       0.40350   0.15540   0.62730
C          C       0.59650   0.34460   0.62730
C          C       0.59650   0.65540   0.37270
C          C       0.40350   0.84460   0.37270
C          C       0.14900   0.39980   0.87320
C          C       0.85100   0.10020   0.87320
C          C       0.85100   0.89980   0.12680
C          C       0.14900   0.60020   0.12680
C          C       0.64900   0.89980   0.37320
C          C       0.35100   0.60020   0.37320
C          C       0.35100   0.39980   0.62680
C          C       0.64900   0.10020   0.62680
C          C       0.85100   0.60020   0.12680
C          C       0.14900   0.89980   0.12680
C          C       0.14900   0.10020   0.87320
C          C       0.85100   0.39980   0.87320
C          C       0.35100   0.10020   0.62680
C          C       0.64900   0.39980   0.62680
C          C       0.64900   0.60020   0.37320
C          C       0.35100   0.89980   0.37320
H          H       0.29640   0.58360   0.57850
H          H       0.70360   0.91640   0.57850
H          H       0.70360   0.08360   0.42150
H          H       0.29640   0.41640   0.42150
H          H       0.79640   0.08360   0.07850
H          H       0.20360   0.41640   0.07850
H          H       0.20360   0.58360   0.92150
H          H       0.79640   0.91640   0.92150
H          H       0.70360   0.41640   0.42150
H          H       0.29640   0.08360   0.42150
H          H       0.29640   0.91640   0.57850
H          H       0.70360   0.58360   0.57850
H          H       0.20360   0.91640   0.92150
H          H       0.79640   0.58360   0.92150
H          H       0.79640   0.41640   0.07850
H          H       0.20360   0.08360   0.07850
H          H       0.09810   0.34860   0.81030
H          H       0.90190   0.15140   0.81030
H          H       0.90190   0.84860   0.18970
H          H       0.09810   0.65140   0.18970
H          H       0.59810   0.84860   0.31030
H          H       0.40190   0.65140   0.31030
H          H       0.40190   0.34860   0.68970
H          H       0.59810   0.15140   0.68970
H          H       0.90190   0.65140   0.18970
H          H       0.09810   0.84860   0.18970
H          H       0.09810   0.15140   0.81030
H          H       0.90190   0.34860   0.81030
H          H       0.40190   0.15140   0.68970
H          H       0.59810   0.34860   0.68970
H          H       0.59810   0.65140   0.31030
H          H       0.40190   0.84860   0.31030
H          H       0.19090   0.47310   0.98660
H          H       0.80910   0.02690   0.98660
H          H       0.80910   0.97310   0.01340
H          H       0.19090   0.52690   0.01340
H          H       0.69090   0.97310   0.48660
H          H       0.30910   0.52690   0.48660
H          H       0.30910   0.47310   0.51340
H          H       0.69090   0.02690   0.51340
H          H       0.80910   0.52690   0.01340
H          H       0.19090   0.97310   0.01340
H          H       0.19090   0.02690   0.98660
H          H       0.80910   0.47310   0.98660
H          H       0.30910   0.02690   0.51340
H          H       0.69090   0.47310   0.51340
H          H       0.69090   0.52690   0.48660
H          H       0.30910   0.97310   0.48660
H          H       0.09620   0.39630   0.76830
H          H       0.90380   0.10370   0.76830
H          H       0.90380   0.89630   0.23170
H          H       0.09620   0.60370   0.23170
H          H       0.59620   0.89630   0.26830
H          H       0.40380   0.60370   0.26830
H          H       0.40380   0.39630   0.73170
H          H       0.59620   0.10370   0.73170
H          H       0.90380   0.60370   0.23170
H          H       0.09620   0.89630   0.23170
H          H       0.09620   0.10370   0.76830
H          H       0.90380   0.39630   0.76830
H          H       0.40380   0.10370   0.73170
H          H       0.59620   0.39630   0.73170
H          H       0.59620   0.60370   0.26830
H          H       0.40380   0.89630   0.26830
H          H       0.11790   0.42310   0.70730
H          H       0.88210   0.07690   0.70730
H          H       0.88210   0.92310   0.29270
H          H       0.11790   0.57690   0.29270
H          H       0.61790   0.92310   0.20730
H          H       0.38210   0.57690   0.20730
H          H       0.38210   0.42310   0.79270
H          H       0.61790   0.07690   0.79270
H          H       0.88210   0.57690   0.29270
H          H       0.11790   0.92310   0.29270
H          H       0.11790   0.07690   0.70730
H          H       0.88210   0.42310   0.70730
H          H       0.38210   0.07690   0.79270
H          H       0.61790   0.42310   0.79270
H          H       0.61790   0.57690   0.20730
H          H       0.38210   0.92310   0.20730
H          H       0.16080   0.45330   0.92760
H          H       0.83920   0.04670   0.92760
H          H       0.83920   0.95330   0.07240
H          H       0.16080   0.54670   0.07240
H          H       0.66080   0.95330   0.42760
H          H       0.33920   0.54670   0.42760
H          H       0.33920   0.45330   0.57240
H          H       0.66080   0.04670   0.57240
H          H       0.83920   0.54670   0.07240
H          H       0.16080   0.95330   0.07240
H          H       0.16080   0.04670   0.92760
H          H       0.83920   0.45330   0.92760
H          H       0.33920   0.04670   0.57240
H          H       0.66080   0.45330   0.57240
H          H       0.66080   0.54670   0.42760
H          H       0.33920   0.95330   0.42760
H          H       0.26730   0.52090   0.69000
H          H       0.73270   0.97910   0.69000
H          H       0.73270   0.02090   0.31000
H          H       0.26730   0.47910   0.31000
H          H       0.76730   0.02090   0.19000
H          H       0.23270   0.47910   0.19000
H          H       0.23270   0.52090   0.81000
H          H       0.76730   0.97910   0.81000
H          H       0.73270   0.47910   0.31000
H          H       0.26730   0.02090   0.31000
H          H       0.26730   0.97910   0.69000
H          H       0.73270   0.52090   0.69000
H          H       0.23270   0.97910   0.81000
H          H       0.76730   0.52090   0.81000
H          H       0.76730   0.47910   0.19000
H          H       0.23270   0.02090   0.19000
H          H       0.29650   0.54920   0.63320
H          H       0.70350   0.95080   0.63320
H          H       0.70350   0.04920   0.36680
H          H       0.29650   0.45080   0.36680
H          H       0.79650   0.04920   0.13320
H          H       0.20350   0.45080   0.13320
H          H       0.20350   0.54920   0.86680
H          H       0.79650   0.95080   0.86680
H          H       0.70350   0.45080   0.36680
H          H       0.29650   0.04920   0.36680
H          H       0.29650   0.95080   0.63320
H          H       0.70350   0.54920   0.63320
H          H       0.20350   0.95080   0.86680
H          H       0.79650   0.54920   0.86680
H          H       0.79650   0.45080   0.13320
H          H       0.20350   0.04920   0.13320
H          H       0.16700   0.45160   0.66700
H          H       0.83300   0.04840   0.66700
H          H       0.83300   0.95160   0.33300
H          H       0.16700   0.54840   0.33300
H          H       0.66700   0.95160   0.16700
H          H       0.33300   0.54840   0.16700
H          H       0.33300   0.45160   0.83300
H          H       0.66700   0.04840   0.83300
H          H       0.83300   0.54840   0.33300
H          H       0.16700   0.95160   0.33300
H          H       0.16700   0.04840   0.66700
H          H       0.83300   0.45160   0.66700
H          H       0.33300   0.04840   0.83300
H          H       0.66700   0.45160   0.83300
H          H       0.66700   0.54840   0.16700
H          H       0.33300   0.95160   0.16700
H          H       0.10030   0.34580   0.93520
H          H       0.89970   0.15420   0.93520
H          H       0.89970   0.84580   0.06480
H          H       0.10030   0.65420   0.06480
H          H       0.60030   0.84580   0.43520
H          H       0.39970   0.65420   0.43520
H          H       0.39970   0.34580   0.56480
H          H       0.60030   0.15420   0.56480
H          H       0.89970   0.65420   0.06480
H          H       0.10030   0.84580   0.06480
H          H       0.10030   0.15420   0.93520
H          H       0.89970   0.34580   0.93520
H          H       0.39970   0.15420   0.56480
H          H       0.60030   0.34580   0.56480
H          H       0.60030   0.65420   0.43520
H          H       0.39970   0.84580   0.43520
H          H       0.22210   0.44750   0.76180
H          H       0.77790   0.05250   0.76180
H          H       0.77790   0.94750   0.23820
H          H       0.22210   0.55250   0.23820
H          H       0.72210   0.94750   0.26180
H          H       0.27790   0.55250   0.26180
H          H       0.27790   0.44750   0.73820
H          H       0.72210   0.05250   0.73820
H          H       0.77790   0.55250   0.23820
H          H       0.22210   0.94750   0.23820
H          H       0.22210   0.05250   0.76180
H          H       0.77790   0.44750   0.76180
H          H       0.27790   0.05250   0.73820
H          H       0.72210   0.44750   0.73820
H          H       0.72210   0.55250   0.26180
H          H       0.27790   0.94750   0.26180
H          H       0.15090   0.34570   0.97610
H          H       0.84910   0.15430   0.97610
H          H       0.84910   0.84570   0.02390
H          H       0.15090   0.65430   0.02390
H          H       0.65090   0.84570   0.47610
H          H       0.34910   0.65430   0.47610
H          H       0.34910   0.34570   0.52390
H          H       0.65090   0.15430   0.52390
H          H       0.84910   0.65430   0.02390
H          H       0.15090   0.84570   0.02390
H          H       0.15090   0.15430   0.97610
H          H       0.84910   0.34570   0.97610
H          H       0.34910   0.15430   0.52390
H          H       0.65090   0.34570   0.52390
H          H       0.65090   0.65430   0.47610
H          H       0.34910   0.84570   0.47610
H          H       0.17790   0.36740   0.03720
H          H       0.82210   0.13260   0.03720
H          H       0.82210   0.86740   0.96280
H          H       0.17790   0.63260   0.96280
H          H       0.67790   0.86740   0.53720
H          H       0.32210   0.63260   0.53720
H          H       0.32210   0.36740   0.46280
H          H       0.67790   0.13260   0.46280
H          H       0.82210   0.63260   0.96280
H          H       0.17790   0.86740   0.96280
H          H       0.17790   0.13260   0.03720
H          H       0.82210   0.36740   0.03720
H          H       0.32210   0.13260   0.46280
H          H       0.67790   0.36740   0.46280
H          H       0.67790   0.63260   0.53720
H          H       0.32210   0.86740   0.53720
H          H       0.20300   0.41700   0.82050
H          H       0.79700   0.08300   0.82050
H          H       0.79700   0.91700   0.17950
H          H       0.20300   0.58300   0.17950
H          H       0.70300   0.91700   0.32050
H          H       0.29700   0.58300   0.32050
H          H       0.29700   0.41700   0.67950
H          H       0.70300   0.08300   0.67950
H          H       0.79700   0.58300   0.17950
H          H       0.20300   0.91700   0.17950
H          H       0.20300   0.08300   0.82050
H          H       0.79700   0.41700   0.82050
H          H       0.29700   0.08300   0.67950
H          H       0.70300   0.41700   0.67950
H          H       0.70300   0.58300   0.32050
H          H       0.29700   0.91700   0.32050
H          H       0.23330   0.48030   0.55680
H          H       0.76670   0.01970   0.55680
H          H       0.76670   0.98030   0.44320
H          H       0.23330   0.51970   0.44320
H          H       0.73330   0.98030   0.05680
H          H       0.26670   0.51970   0.05680
H          H       0.26670   0.48030   0.94320
H          H       0.73330   0.01970   0.94320
H          H       0.76670   0.51970   0.44320
H          H       0.23330   0.98030   0.44320
H          H       0.23330   0.01970   0.55680
H          H       0.76670   0.48030   0.55680
H          H       0.26670   0.01970   0.94320
H          H       0.73330   0.48030   0.94320
H          H       0.73330   0.51970   0.05680
H          H       0.26670   0.98030   0.05680
H          H       0.20410   0.45190   0.61360
H          H       0.79590   0.04810   0.61360
H          H       0.79590   0.95190   0.38640
H          H       0.20410   0.54810   0.38640
H          H       0.70410   0.95190   0.11360
H          H       0.29590   0.54810   0.11360
H          H       0.29590   0.45190   0.88640
H          H       0.70410   0.04810   0.88640
H          H       0.79590   0.54810   0.38640
H          H       0.20410   0.95190   0.38640
H          H       0.20410   0.04810   0.61360
H          H       0.79590   0.45190   0.61360
H          H       0.29590   0.04810   0.88640
H          H       0.70410   0.45190   0.88640
H          H       0.70410   0.54810   0.11360
H          H       0.29590   0.95190   0.11360
H          H       0.03590   0.38540   0.87160
H          H       0.96410   0.11460   0.87160
H          H       0.96410   0.88540   0.12840
H          H       0.03590   0.61460   0.12840
H          H       0.53590   0.88540   0.37160
H          H       0.46410   0.61460   0.37160
H          H       0.46410   0.38540   0.62840
H          H       0.53590   0.11460   0.62840
H          H       0.96410   0.61460   0.12840
H          H       0.03590   0.88540   0.12840
H          H       0.03590   0.11460   0.87160
H          H       0.96410   0.38540   0.87160
H          H       0.46410   0.11460   0.62840
H          H       0.53590   0.38540   0.62840
H          H       0.53590   0.61460   0.37160
H          H       0.46410   0.88540   0.37160
H          H       0.14130   0.28680   0.87350
H          H       0.85870   0.21320   0.87350
H          H       0.85870   0.78680   0.12650
H          H       0.14130   0.71320   0.12650
H          H       0.64130   0.78680   0.37350
H          H       0.35870   0.71320   0.37350
H          H       0.35870   0.28680   0.62650
H          H       0.64130   0.21320   0.62650
H          H       0.85870   0.71320   0.12650
H          H       0.14130   0.78680   0.12650
H          H       0.14130   0.21320   0.87350
H          H       0.85870   0.28680   0.87350
H          H       0.35870   0.21320   0.62650
H          H       0.64130   0.28680   0.62650
H          H       0.64130   0.71320   0.37350
H          H       0.35870   0.78680   0.37350
H          H       0.16920   0.42120   0.87350
H          H       0.83080   0.07880   0.87350
H          H       0.83080   0.92120   0.12650
H          H       0.16920   0.57880   0.12650
H          H       0.66920   0.92120   0.37350
H          H       0.33080   0.57880   0.37350
H          H       0.33080   0.42120   0.62650
H          H       0.66920   0.07880   0.62650
H          H       0.83080   0.57880   0.12650
H          H       0.16920   0.92120   0.12650
H          H       0.16920   0.07880   0.87350
H          H       0.83080   0.42120   0.87350
H          H       0.33080   0.07880   0.62650
H          H       0.66920   0.42120   0.62650
H          H       0.66920   0.57880   0.37350
H          H       0.33080   0.92120   0.37350
N          N       0.05810   0.25000   0.87250
N          N       0.94190   0.25000   0.87250
N          N       0.94190   0.75000   0.12750
N          N       0.05810   0.75000   0.12750
N          N       0.55810   0.75000   0.37250
N          N       0.44190   0.75000   0.37250
N          N       0.44190   0.25000   0.62750
N          N       0.55810   0.25000   0.62750
N          N       0.00000   0.30160   0.87220
N          N       0.00000   0.19840   0.87220
N          N       0.00000   0.80160   0.12780
N          N       0.00000   0.69840   0.12780
N          N       0.50000   0.80160   0.37220
N          N       0.50000   0.69840   0.37220
N          N       0.50000   0.30160   0.62780
N          N       0.50000   0.19840   0.62780
