data_crystal

_cell_length_a    38.97140
_cell_length_b    38.97140
_cell_length_c    6.99460
_cell_angle_alpha 90.00000
_cell_angle_beta  90.00000
_cell_angle_gamma 120.00000

_space_group_name_Hall 'P 1'
_space_group_name_H-M_alt 'P 1'

loop_
_symmetry_equiv_pos_as_xyz
 'x,y,z'

loop_
_atom_site_label
_atom_site_type_symbol
_atom_site_fract_x
_atom_site_fract_y
_atom_site_fract_z
C          C       0.35510   0.64890   0.00000
C          C       0.35110   0.70620   0.00000
C          C       0.29380   0.64490   0.00000
C          C       0.64490   0.35110   0.00000
C          C       0.64890   0.29380   0.00000
C          C       0.70620   0.35510   0.00000
N          N       0.37265   0.68831   0.00000
N          N       0.31169   0.68434   0.00000
N          N       0.31566   0.62735   0.00000
N          N       0.62735   0.31169   0.00000
N          N       0.68831   0.31566   0.00000
N          N       0.68434   0.37265   0.00000
C          C       0.37864   0.62968   0.00000
C          C       0.37032   0.74896   0.00000
C          C       0.25104   0.62136   0.00000
C          C       0.62136   0.37032   0.00000
C          C       0.62968   0.25104   0.00000
C          C       0.74896   0.37864   0.00000
C          C       0.41934   0.65185   0.00000
C          C       0.34815   0.76749   0.00000
C          C       0.23251   0.58066   0.00000
C          C       0.58066   0.34815   0.00000
C          C       0.65185   0.23251   0.00000
C          C       0.76749   0.41934   0.00000
C          C       0.44169   0.63365   0.00000
C          C       0.36635   0.80804   0.00000
C          C       0.19196   0.55831   0.00000
C          C       0.55831   0.36635   0.00000
C          C       0.63365   0.19196   0.00000
C          C       0.80804   0.44169   0.00000
C          C       0.42369   0.59310   0.00000
C          C       0.40690   0.83059   0.00000
C          C       0.16941   0.57631   0.00000
C          C       0.57631   0.40690   0.00000
C          C       0.59310   0.16941   0.00000
C          C       0.83059   0.42369   0.00000
C          C       0.38292   0.57081   0.00000
C          C       0.42919   0.81211   0.00000
C          C       0.18789   0.61708   0.00000
C          C       0.61708   0.42919   0.00000
C          C       0.57081   0.18789   0.00000
C          C       0.81211   0.38292   0.00000
C          C       0.36060   0.58902   0.00000
C          C       0.41098   0.77158   0.00000
C          C       0.22842   0.63940   0.00000
C          C       0.63940   0.41098   0.00000
C          C       0.58902   0.22842   0.00000
C          C       0.77158   0.36060   0.00000
N          N       0.44741   0.57536   0.00000
N          N       0.42464   0.87205   0.00000
N          N       0.12795   0.55259   0.00000
N          N       0.55259   0.42464   0.00000
N          N       0.57536   0.12795   0.00000
N          N       0.87205   0.44741   0.00000
C          C       0.43319   0.53804   0.00000
C          C       0.46196   0.89515   0.00000
C          C       0.10485   0.56681   0.00000
C          C       0.56681   0.46196   0.00000
C          C       0.53804   0.10485   0.00000
C          C       0.89515   0.43319   0.00000
C          C       0.45859   0.52116   0.00000
C          C       0.47884   0.93743   0.00000
C          C       0.06257   0.54141   0.00000
C          C       0.54141   0.47884   0.00000
C          C       0.52116   0.06257   0.00000
C          C       0.93743   0.45859   0.00000
C          C       0.49900   0.54352   0.00000
C          C       0.45648   0.95548   0.00000
C          C       0.04452   0.50100   0.00000
C          C       0.50100   0.45648   0.00000
C          C       0.54352   0.04452   0.00000
C          C       0.95548   0.49900   0.00000
C          C       0.48635   0.48112   0.00000
C          C       0.51888   0.00523   0.00000
C          C       0.99477   0.51365   0.00000
C          C       0.51365   0.51888   0.00000
C          C       0.48112   0.99477   0.00000
C          C       0.00523   0.48635   0.00000
S          S       0.43964   0.47144   0.00000
S          S       0.52856   0.96820   0.00000
S          S       0.03180   0.56036   0.00000
S          S       0.56036   0.52856   0.00000
S          S       0.47144   0.03180   0.00000
S          S       0.96820   0.43964   0.00000
H          H       0.43419   0.68493   0.00000
H          H       0.31507   0.74926   0.00000
H          H       0.25074   0.56581   0.00000
H          H       0.56581   0.31507   0.00000
H          H       0.68493   0.25074   0.00000
H          H       0.74926   0.43419   0.00000
H          H       0.47477   0.65188   0.00000
H          H       0.34812   0.82289   0.00000
H          H       0.17711   0.52523   0.00000
H          H       0.52523   0.34812   0.00000
H          H       0.65188   0.17711   0.00000
H          H       0.82289   0.47477   0.00000
H          H       0.36792   0.53772   0.00000
H          H       0.46228   0.83020   0.00000
H          H       0.16980   0.63208   0.00000
H          H       0.63208   0.46228   0.00000
H          H       0.53772   0.16980   0.00000
H          H       0.83020   0.36792   0.00000
H          H       0.32751   0.57080   0.00000
H          H       0.42920   0.75671   0.00000
H          H       0.24329   0.67249   0.00000
H          H       0.67249   0.42920   0.00000
H          H       0.57080   0.24329   0.00000
H          H       0.75671   0.32751   0.00000
H          H       0.40028   0.51826   0.00000
H          H       0.48174   0.88202   0.00000
H          H       0.11798   0.59972   0.00000
H          H       0.59972   0.48174   0.00000
H          H       0.51826   0.11798   0.00000
H          H       0.88202   0.40028   0.00000
H          H       0.51378   0.57660   0.00000
H          H       0.42340   0.93718   0.00000
H          H       0.06282   0.48622   0.00000
H          H       0.48622   0.42340   0.00000
H          H       0.57660   0.06282   0.00000
H          H       0.93718   0.51378   0.00000
C          C       0.35510   0.64890   0.50000
C          C       0.35110   0.70620   0.50000
C          C       0.29380   0.64490   0.50000
C          C       0.64490   0.35110   0.50000
C          C       0.64890   0.29380   0.50000
C          C       0.70620   0.35510   0.50000
N          N       0.37265   0.68831   0.50000
N          N       0.31169   0.68434   0.50000
N          N       0.31566   0.62735   0.50000
N          N       0.62735   0.31169   0.50000
N          N       0.68831   0.31566   0.50000
N          N       0.68434   0.37265   0.50000
C          C       0.37864   0.62968   0.50000
C          C       0.37032   0.74896   0.50000
C          C       0.25104   0.62136   0.50000
C          C       0.62136   0.37032   0.50000
C          C       0.62968   0.25104   0.50000
C          C       0.74896   0.37864   0.50000
C          C       0.41934   0.65185   0.50000
C          C       0.34815   0.76749   0.50000
C          C       0.23251   0.58066   0.50000
C          C       0.58066   0.34815   0.50000
C          C       0.65185   0.23251   0.50000
C          C       0.76749   0.41934   0.50000
C          C       0.44169   0.63365   0.50000
C          C       0.36635   0.80804   0.50000
C          C       0.19196   0.55831   0.50000
C          C       0.55831   0.36635   0.50000
C          C       0.63365   0.19196   0.50000
C          C       0.80804   0.44169   0.50000
C          C       0.42369   0.59310   0.50000
C          C       0.40690   0.83059   0.50000
C          C       0.16941   0.57631   0.50000
C          C       0.57631   0.40690   0.50000
C          C       0.59310   0.16941   0.50000
C          C       0.83059   0.42369   0.50000
C          C       0.38292   0.57081   0.50000
C          C       0.42919   0.81211   0.50000
C          C       0.18789   0.61708   0.50000
C          C       0.61708   0.42919   0.50000
C          C       0.57081   0.18789   0.50000
C          C       0.81211   0.38292   0.50000
C          C       0.36060   0.58902   0.50000
C          C       0.41098   0.77158   0.50000
C          C       0.22842   0.63940   0.50000
C          C       0.63940   0.41098   0.50000
C          C       0.58902   0.22842   0.50000
C          C       0.77158   0.36060   0.50000
N          N       0.44741   0.57536   0.50000
N          N       0.42464   0.87205   0.50000
N          N       0.12795   0.55259   0.50000
N          N       0.55259   0.42464   0.50000
N          N       0.57536   0.12795   0.50000
N          N       0.87205   0.44741   0.50000
C          C       0.43319   0.53804   0.50000
C          C       0.46196   0.89515   0.50000
C          C       0.10485   0.56681   0.50000
C          C       0.56681   0.46196   0.50000
C          C       0.53804   0.10485   0.50000
C          C       0.89515   0.43319   0.50000
C          C       0.45859   0.52116   0.50000
C          C       0.47884   0.93743   0.50000
C          C       0.06257   0.54141   0.50000
C          C       0.54141   0.47884   0.50000
C          C       0.52116   0.06257   0.50000
C          C       0.93743   0.45859   0.50000
C          C       0.49900   0.54352   0.50000
C          C       0.45648   0.95548   0.50000
C          C       0.04452   0.50100   0.50000
C          C       0.50100   0.45648   0.50000
C          C       0.54352   0.04452   0.50000
C          C       0.95548   0.49900   0.50000
C          C       0.48635   0.48112   0.50000
C          C       0.51888   0.00523   0.50000
C          C       0.99477   0.51365   0.50000
C          C       0.51365   0.51888   0.50000
C          C       0.48112   0.99477   0.50000
C          C       0.00523   0.48635   0.50000
S          S       0.43964   0.47144   0.50000
S          S       0.52856   0.96820   0.50000
S          S       0.03180   0.56036   0.50000
S          S       0.56036   0.52856   0.50000
S          S       0.47144   0.03180   0.50000
S          S       0.96820   0.43964   0.50000
H          H       0.43419   0.68493   0.50000
H          H       0.31507   0.74926   0.50000
H          H       0.25074   0.56581   0.50000
H          H       0.56581   0.31507   0.50000
H          H       0.68493   0.25074   0.50000
H          H       0.74926   0.43419   0.50000
H          H       0.47477   0.65188   0.50000
H          H       0.34812   0.82289   0.50000
H          H       0.17711   0.52523   0.50000
H          H       0.52523   0.34812   0.50000
H          H       0.65188   0.17711   0.50000
H          H       0.82289   0.47477   0.50000
H          H       0.36792   0.53772   0.50000
H          H       0.46228   0.83020   0.50000
H          H       0.16980   0.63208   0.50000
H          H       0.63208   0.46228   0.50000
H          H       0.53772   0.16980   0.50000
H          H       0.83020   0.36792   0.50000
H          H       0.32751   0.57080   0.50000
H          H       0.42920   0.75671   0.50000
H          H       0.24329   0.67249   0.50000
H          H       0.67249   0.42920   0.50000
H          H       0.57080   0.24329   0.50000
H          H       0.75671   0.32751   0.50000
H          H       0.40028   0.51826   0.50000
H          H       0.48174   0.88202   0.50000
H          H       0.11798   0.59972   0.50000
H          H       0.59972   0.48174   0.50000
H          H       0.51826   0.11798   0.50000
H          H       0.88202   0.40028   0.50000
H          H       0.51378   0.57660   0.50000
H          H       0.42340   0.93718   0.50000
H          H       0.06282   0.48622   0.50000
H          H       0.48622   0.42340   0.50000
H          H       0.57660   0.06282   0.50000
H          H       0.93718   0.51378   0.50000
