data_crystal

_cell_length_a    35.12890
_cell_length_b    35.12890
_cell_length_c    11.96160
_cell_angle_alpha 90.00000
_cell_angle_beta  90.00000
_cell_angle_gamma 90.00000

_space_group_name_Hall 'P 1'
_space_group_name_H-M_alt 'P 1'

loop_
_symmetry_equiv_pos_as_xyz
 'x,y,z'

loop_
_atom_site_label
_atom_site_type_symbol
_atom_site_fract_x
_atom_site_fract_y
_atom_site_fract_z
N          N       0.18431   0.97168   0.18438
N          N       0.81569   0.02832   0.18438
N          N       0.02832   0.18431   0.18438
N          N       0.97168   0.81569   0.18438
C          C       0.20037   0.95830   0.29395
C          C       0.79963   0.04170   0.29395
C          C       0.04170   0.20037   0.29395
C          C       0.95830   0.79963   0.29395
C          C       0.16801   0.93895   0.11850
C          C       0.83199   0.06105   0.11850
C          C       0.06105   0.16801   0.11850
C          C       0.93895   0.83199   0.11850
C          C       0.15288   0.00061   0.20121
C          C       0.84712   0.99939   0.20121
C          C       0.99939   0.15288   0.20121
C          C       0.00061   0.84712   0.20121
N          N       0.29776   0.54282   0.29131
N          N       0.70224   0.45718   0.29131
N          N       0.45718   0.29776   0.29131
N          N       0.54282   0.70224   0.29131
C          C       0.30799   0.53782   0.16861
C          C       0.69201   0.46218   0.16861
C          C       0.46218   0.30799   0.16861
C          C       0.53782   0.69201   0.16861
C          C       0.32372   0.51593   0.35184
C          C       0.67628   0.48407   0.35184
C          C       0.48407   0.32372   0.35184
C          C       0.51593   0.67628   0.35184
C          C       0.30438   0.58230   0.33565
C          C       0.69562   0.41770   0.33565
C          C       0.41770   0.30438   0.33565
C          C       0.58230   0.69562   0.33565
N          N       0.15692   0.29306   0.23874
N          N       0.84308   0.70694   0.23874
N          N       0.70694   0.15692   0.23874
N          N       0.29306   0.84308   0.23874
C          C       0.22865   0.25297   0.19588
C          C       0.77135   0.74703   0.19588
C          C       0.74703   0.22865   0.19588
C          C       0.25297   0.77135   0.19588
C          C       0.25983   0.22813   0.19287
C          C       0.74017   0.77187   0.19287
C          C       0.77187   0.25983   0.19287
C          C       0.22813   0.74017   0.19287
C          C       0.28725   0.22771   0.27879
C          C       0.71275   0.77229   0.27879
C          C       0.77229   0.28725   0.27879
C          C       0.22771   0.71275   0.27879
C          C       0.31797   0.19740   0.27796
C          C       0.68203   0.80260   0.27796
C          C       0.80260   0.31797   0.27796
C          C       0.19740   0.68203   0.27796
O          O       0.20215   0.25506   0.10699
O          O       0.79785   0.74494   0.10699
O          O       0.74494   0.20215   0.10699
O          O       0.25506   0.79785   0.10699
C          C       0.19615   0.22166   0.04080
C          C       0.80385   0.77834   0.04080
C          C       0.77834   0.19615   0.04080
C          C       0.22166   0.80385   0.04080
C          C       0.30023   0.15960   0.26621
C          C       0.69977   0.84040   0.26621
C          C       0.84040   0.30023   0.26621
C          C       0.15960   0.69977   0.26621
C          C       0.37664   0.15761   0.06371
C          C       0.62336   0.84239   0.06371
C          C       0.84239   0.37664   0.06371
C          C       0.15761   0.62336   0.06371
C          C       0.40161   0.12717   0.04961
C          C       0.59839   0.87283   0.04961
C          C       0.87283   0.40161   0.04961
C          C       0.12717   0.59839   0.04961
C          C       0.42549   0.11591   0.13806
C          C       0.57451   0.88409   0.13806
C          C       0.88409   0.42549   0.13806
C          C       0.11591   0.57451   0.13806
C          C       0.38829   0.04349   0.18379
C          C       0.61171   0.95651   0.18379
C          C       0.95651   0.38829   0.18379
C          C       0.04349   0.61171   0.18379
C          C       0.37811   0.00566   0.19185
C          C       0.62189   0.99434   0.19185
C          C       0.99434   0.37811   0.19185
C          C       0.00566   0.62189   0.19185
N          N       0.44093   0.01090   0.12901
N          N       0.55907   0.98910   0.12901
N          N       0.98910   0.44093   0.12901
N          N       0.01090   0.55907   0.12901
C          C       0.42603   0.04573   0.14785
C          C       0.57397   0.95427   0.14785
C          C       0.95427   0.42603   0.14785
C          C       0.04573   0.57397   0.14785
C          C       0.44671   0.07974   0.13103
C          C       0.55329   0.92026   0.13103
C          C       0.92026   0.44671   0.13103
C          C       0.07974   0.55329   0.13103
C          C       0.28544   0.12929   0.24831
C          C       0.71456   0.87071   0.24831
C          C       0.87071   0.28544   0.24831
C          C       0.12929   0.71456   0.24831
C          C       0.26713   0.09406   0.21915
C          C       0.73287   0.90594   0.21915
C          C       0.90594   0.26713   0.21915
C          C       0.09406   0.73287   0.21915
C          C       0.23676   0.09450   0.14372
C          C       0.76324   0.90550   0.14372
C          C       0.90550   0.23676   0.14372
C          C       0.09450   0.76324   0.14372
C          C       0.21985   0.06048   0.10970
C          C       0.78015   0.93952   0.10970
C          C       0.93952   0.21985   0.10970
C          C       0.06048   0.78015   0.10970
C          C       0.23271   0.02543   0.15266
C          C       0.76729   0.97457   0.15266
C          C       0.97457   0.23271   0.15266
C          C       0.02543   0.76729   0.15266
C          C       0.26399   0.02518   0.22601
C          C       0.73601   0.97482   0.22601
C          C       0.97482   0.26399   0.22601
C          C       0.02518   0.73601   0.22601
C          C       0.28089   0.05934   0.25999
C          C       0.71911   0.94066   0.25999
C          C       0.94066   0.28089   0.25999
C          C       0.05934   0.71911   0.25999
C          C       0.12806   0.32036   0.21300
C          C       0.87194   0.67964   0.21300
C          C       0.67964   0.12806   0.21300
C          C       0.32036   0.87194   0.21300
C          C       0.07930   0.38179   0.16973
C          C       0.92070   0.61821   0.16973
C          C       0.61821   0.07930   0.16973
C          C       0.38179   0.92070   0.16973
C          C       0.07912   0.36426   0.27565
C          C       0.92088   0.63574   0.27565
C          C       0.63574   0.07912   0.27565
C          C       0.36426   0.92088   0.27565
C          C       0.10347   0.33332   0.29661
C          C       0.89653   0.66668   0.29661
C          C       0.66668   0.10347   0.29661
C          C       0.33332   0.89653   0.29661
C          C       0.01567   0.41202   0.15797
C          C       0.98433   0.58798   0.15797
C          C       0.58798   0.01567   0.15797
C          C       0.41202   0.98433   0.15797
C          C       0.05552   0.41563   0.14929
C          C       0.94448   0.58437   0.14929
C          C       0.58437   0.05552   0.14929
C          C       0.41563   0.94448   0.14929
C          C       0.21494   0.98861   0.11135
C          C       0.78506   0.01139   0.11135
C          C       0.01139   0.21494   0.11135
C          C       0.98861   0.78506   0.11135
C          C       0.07928   0.51507   0.07071
C          C       0.92072   0.48493   0.07071
C          C       0.48493   0.07928   0.07071
C          C       0.51507   0.92072   0.07071
N          N       0.05460   0.48687   0.12459
N          N       0.94540   0.51313   0.12459
N          N       0.51313   0.05460   0.12459
N          N       0.48687   0.94540   0.12459
C          C       0.07304   0.45071   0.12184
C          C       0.92696   0.54929   0.12184
C          C       0.54929   0.07304   0.12184
C          C       0.45071   0.92696   0.12184
C          C       0.19002   0.30299   0.30783
C          C       0.80998   0.69701   0.30783
C          C       0.69701   0.19002   0.30783
C          C       0.30299   0.80998   0.30783
C          C       0.22468   0.27795   0.28786
C          C       0.77532   0.72205   0.28786
C          C       0.72205   0.22468   0.28786
C          C       0.27795   0.77532   0.28786
C          C       0.20082   0.34328   0.29562
C          C       0.79918   0.65672   0.29562
C          C       0.65672   0.20082   0.29562
C          C       0.34328   0.79918   0.29562
C          C       0.20960   0.37631   0.29175
C          C       0.79040   0.62369   0.29175
C          C       0.62369   0.20960   0.29175
C          C       0.37631   0.79040   0.29175
C          C       0.22103   0.41550   0.29479
C          C       0.77897   0.58450   0.29479
C          C       0.58450   0.22103   0.29479
C          C       0.41550   0.77897   0.29479
C          C       0.23665   0.43005   0.39317
C          C       0.76335   0.56995   0.39317
C          C       0.56995   0.23665   0.39317
C          C       0.43005   0.76335   0.39317
C          C       0.24767   0.46808   0.39901
C          C       0.75233   0.53192   0.39901
C          C       0.53192   0.24767   0.39901
C          C       0.46808   0.75233   0.39901
C          C       0.24496   0.49177   0.30453
C          C       0.75504   0.50823   0.30453
C          C       0.50823   0.24496   0.30453
C          C       0.49177   0.75504   0.30453
C          C       0.22794   0.47733   0.20708
C          C       0.77206   0.52267   0.20708
C          C       0.52267   0.22794   0.20708
C          C       0.47733   0.77206   0.20708
C          C       0.21611   0.43931   0.20197
C          C       0.78389   0.56069   0.20197
C          C       0.56069   0.21611   0.20197
C          C       0.43931   0.78389   0.20197
C          C       0.28531   0.25513   0.36432
C          C       0.71469   0.74487   0.36432
C          C       0.74487   0.28531   0.36432
C          C       0.25513   0.71469   0.36432
C          C       0.25368   0.27948   0.36893
C          C       0.74632   0.72052   0.36893
C          C       0.72052   0.25368   0.36893
C          C       0.27948   0.74632   0.36893
O          O       0.31515   0.25652   0.44378
O          O       0.68485   0.74348   0.44378
O          O       0.74348   0.31515   0.44378
O          O       0.25652   0.68485   0.44378
C          C       0.31873   0.28964   0.01210
C          C       0.68127   0.71036   0.01210
C          C       0.71036   0.31873   0.01210
C          C       0.28964   0.68127   0.01210
N          N       0.34462   0.20341   0.18525
N          N       0.65538   0.79659   0.18525
N          N       0.79659   0.34462   0.18525
N          N       0.20341   0.65538   0.18525
C          C       0.37495   0.17691   0.16609
C          C       0.62505   0.82309   0.16609
C          C       0.82309   0.37495   0.16609
C          C       0.17691   0.62505   0.16609
C          C       0.42556   0.13681   0.23759
C          C       0.57444   0.86319   0.23759
C          C       0.86319   0.42556   0.23759
C          C       0.13681   0.57444   0.23759
C          C       0.40031   0.16716   0.25199
C          C       0.59969   0.83284   0.25199
C          C       0.83284   0.40031   0.25199
C          C       0.16716   0.59969   0.25199
C          C       0.54327   0.11276   0.09147
C          C       0.45673   0.88724   0.09147
C          C       0.88724   0.54327   0.09147
C          C       0.11276   0.45673   0.09147
C          C       0.50522   0.11731   0.06512
C          C       0.49478   0.88269   0.06512
C          C       0.88269   0.50522   0.06512
C          C       0.11731   0.49478   0.06512
C          C       0.12753   0.33705   0.10692
C          C       0.87247   0.66295   0.10692
C          C       0.66295   0.12753   0.10692
C          C       0.33705   0.87247   0.10692
C          C       0.10289   0.36723   0.08440
C          C       0.89711   0.63277   0.08440
C          C       0.63277   0.10289   0.08440
C          C       0.36723   0.89711   0.08440
C          C       0.25639   0.53337   0.31266
C          C       0.74361   0.46663   0.31266
C          C       0.46663   0.25639   0.31266
C          C       0.53337   0.74361   0.31266
C          C       0.56639   0.66230   0.12379
C          C       0.43361   0.33770   0.12379
C          C       0.33770   0.56639   0.12379
C          C       0.66230   0.43361   0.12379
C          C       0.48037   0.66956   0.27694
C          C       0.51963   0.33044   0.27694
C          C       0.33044   0.48037   0.27694
C          C       0.66956   0.51963   0.27694
C          C       0.23013   0.92613   0.28715
C          C       0.76987   0.07387   0.28715
C          C       0.07387   0.23013   0.28715
C          C       0.92613   0.76987   0.28715
C          C       0.14034   0.91221   0.18144
C          C       0.85966   0.08779   0.18144
C          C       0.08779   0.14034   0.18144
C          C       0.91221   0.85966   0.18144
H          H       0.17701   0.94856   0.34975
H          H       0.82299   0.05144   0.34975
H          H       0.05144   0.17701   0.34975
H          H       0.94856   0.82299   0.34975
H          H       0.21434   0.98209   0.33874
H          H       0.78566   0.01791   0.33874
H          H       0.01791   0.21434   0.33874
H          H       0.98209   0.78566   0.33874
H          H       0.19109   0.92072   0.08365
H          H       0.80891   0.07928   0.08365
H          H       0.07928   0.19109   0.08365
H          H       0.92072   0.80891   0.08365
H          H       0.15240   0.94997   0.04415
H          H       0.84760   0.05003   0.04415
H          H       0.05003   0.15240   0.04415
H          H       0.94997   0.84760   0.04415
H          H       0.14937   0.01851   0.12517
H          H       0.85063   0.98149   0.12517
H          H       0.98149   0.14937   0.12517
H          H       0.01851   0.85063   0.12517
H          H       0.28258   0.53865   0.11223
H          H       0.71742   0.46135   0.11223
H          H       0.46135   0.28258   0.11223
H          H       0.53865   0.71742   0.11223
H          H       0.33026   0.50624   0.16084
H          H       0.66974   0.49376   0.16084
H          H       0.49376   0.33026   0.16084
H          H       0.50624   0.66974   0.16084
H          H       0.31290   0.50812   0.43578
H          H       0.68710   0.49188   0.43578
H          H       0.49188   0.31290   0.43578
H          H       0.50812   0.68710   0.43578
H          H       0.35223   0.52910   0.36491
H          H       0.64777   0.47090   0.36491
H          H       0.47090   0.35223   0.36491
H          H       0.52910   0.64777   0.36491
C          C       0.27837   0.61294   0.28435
C          C       0.72163   0.38706   0.28435
C          C       0.38706   0.27837   0.28435
C          C       0.61294   0.72163   0.28435
H          H       0.14798   0.26482   0.23989
H          H       0.85202   0.73518   0.23989
H          H       0.73518   0.14798   0.23989
H          H       0.26482   0.85202   0.23989
H          H       0.26324   0.20830   0.12450
H          H       0.73676   0.79170   0.12450
H          H       0.79170   0.26324   0.12450
H          H       0.20830   0.73676   0.12450
H          H       0.33412   0.19777   0.35704
H          H       0.66588   0.80223   0.35704
H          H       0.80223   0.33412   0.35704
H          H       0.19777   0.66588   0.35704
H          H       0.18943   0.19678   0.09479
H          H       0.81057   0.80322   0.09479
H          H       0.80322   0.18943   0.09479
H          H       0.19678   0.81057   0.09479
H          H       0.22121   0.21576   0.48718
H          H       0.77879   0.78424   0.48718
H          H       0.78424   0.22121   0.48718
H          H       0.21576   0.77879   0.48718
H          H       0.17150   0.22685   0.48470
H          H       0.82850   0.77315   0.48470
H          H       0.77315   0.17150   0.48470
H          H       0.22685   0.82850   0.48470
H          H       0.35650   0.16429   0.49843
H          H       0.64350   0.83571   0.49843
H          H       0.83571   0.35650   0.49843
H          H       0.16429   0.64350   0.49843
H          H       0.40092   0.11115   0.47228
H          H       0.59908   0.88885   0.47228
H          H       0.88885   0.40092   0.47228
H          H       0.11115   0.59908   0.47228
H          H       0.22640   0.12122   0.10997
H          H       0.77360   0.87878   0.10997
H          H       0.87878   0.22640   0.10997
H          H       0.12122   0.77360   0.10997
H          H       0.19672   0.06151   0.05008
H          H       0.80328   0.93849   0.05008
H          H       0.93849   0.19672   0.05008
H          H       0.06151   0.80328   0.05008
H          H       0.27561   0.99864   0.25646
H          H       0.72439   0.00136   0.25646
H          H       0.00136   0.27561   0.25646
H          H       0.99864   0.72439   0.25646
H          H       0.30493   0.05865   0.31665
H          H       0.69507   0.94135   0.31665
H          H       0.94135   0.30493   0.31665
H          H       0.05865   0.69507   0.31665
H          H       0.20307   0.99442   0.02679
H          H       0.79693   0.00558   0.02679
H          H       0.00558   0.20307   0.02679
H          H       0.99442   0.79693   0.02679
H          H       0.18085   0.29858   0.39546
H          H       0.81915   0.70142   0.39546
H          H       0.70142   0.18085   0.39546
H          H       0.29858   0.81915   0.39546
H          H       0.24028   0.41187   0.46571
H          H       0.75972   0.58813   0.46571
H          H       0.58813   0.24028   0.46571
H          H       0.41187   0.75972   0.46571
H          H       0.25884   0.47880   0.47685
H          H       0.74116   0.52120   0.47685
H          H       0.52120   0.25884   0.47685
H          H       0.47880   0.74116   0.47685
H          H       0.22338   0.49568   0.13576
H          H       0.77662   0.50432   0.13576
H          H       0.50432   0.22338   0.13576
H          H       0.49568   0.77662   0.13576
H          H       0.20303   0.42853   0.12660
H          H       0.79697   0.57147   0.12660
H          H       0.57147   0.20303   0.12660
H          H       0.42853   0.79697   0.12660
H          H       0.25047   0.29946   0.43726
H          H       0.74953   0.70054   0.43726
H          H       0.70054   0.25047   0.43726
H          H       0.29946   0.74953   0.43726
H          H       0.31983   0.31579   0.45989
H          H       0.68017   0.68421   0.45989
H          H       0.68421   0.31983   0.45989
H          H       0.31579   0.68017   0.45989
H          H       0.34580   0.28777   0.05939
H          H       0.65420   0.71223   0.05939
H          H       0.71223   0.34580   0.05939
H          H       0.28777   0.65420   0.05939
H          H       0.29515   0.29118   0.07365
H          H       0.70485   0.70882   0.07365
H          H       0.70882   0.29515   0.07365
H          H       0.29118   0.70485   0.07365
H          H       0.33537   0.21910   0.11632
H          H       0.66463   0.78090   0.11632
H          H       0.78090   0.33537   0.11632
H          H       0.21910   0.66463   0.11632
H          H       0.44415   0.12841   0.30516
H          H       0.55585   0.87159   0.30516
H          H       0.87159   0.44415   0.30516
H          H       0.12841   0.55585   0.30516
H          H       0.39975   0.18201   0.33106
H          H       0.60025   0.81799   0.33106
H          H       0.81799   0.39975   0.33106
H          H       0.18201   0.60025   0.33106
H          H       0.14699   0.32701   0.04333
H          H       0.85301   0.67299   0.04333
H          H       0.67299   0.14699   0.04333
H          H       0.32701   0.85301   0.04333
H          H       0.10285   0.38026   0.00214
H          H       0.89715   0.61974   0.00214
H          H       0.61974   0.10285   0.00214
H          H       0.38026   0.89715   0.00214
H          H       0.55708   0.65230   0.04067
H          H       0.44292   0.34770   0.04067
H          H       0.34770   0.55708   0.04067
H          H       0.65230   0.44292   0.04067
H          H       0.56679   0.63661   0.17787
H          H       0.43321   0.36339   0.17787
H          H       0.36339   0.56679   0.17787
H          H       0.63661   0.43321   0.17787
H          H       0.59553   0.67384   0.11453
H          H       0.40447   0.32616   0.11453
H          H       0.32616   0.59553   0.11453
H          H       0.67384   0.40447   0.11453
H          H       0.47363   0.63848   0.26771
H          H       0.52637   0.36152   0.26771
H          H       0.36152   0.47363   0.26771
H          H       0.63848   0.52637   0.26771
H          H       0.49033   0.69097   0.18791
H          H       0.50967   0.30903   0.18791
H          H       0.30903   0.49033   0.18791
H          H       0.69097   0.50967   0.18791
H          H       0.45486   0.68273   0.31561
H          H       0.54514   0.31727   0.31561
H          H       0.31727   0.45486   0.31561
H          H       0.68273   0.54514   0.31561
H          H       0.21870   0.90030   0.24642
H          H       0.78130   0.09970   0.24642
H          H       0.09970   0.21870   0.24642
H          H       0.90030   0.78130   0.24642
H          H       0.23864   0.91801   0.37339
H          H       0.76136   0.08199   0.37339
H          H       0.08199   0.23864   0.37339
H          H       0.91801   0.76136   0.37339
H          H       0.25629   0.93521   0.24305
H          H       0.74371   0.06479   0.24305
H          H       0.06479   0.25629   0.24305
H          H       0.93521   0.74371   0.24305
H          H       0.15439   0.89678   0.25084
H          H       0.84561   0.10322   0.25084
H          H       0.10322   0.15439   0.25084
H          H       0.89678   0.84561   0.25084
H          H       0.12986   0.89027   0.12209
H          H       0.87014   0.10973   0.12209
H          H       0.10973   0.12986   0.12209
H          H       0.89027   0.87014   0.12209
H          H       0.11497   0.92709   0.21452
H          H       0.88503   0.07291   0.21452
H          H       0.07291   0.11497   0.21452
H          H       0.92709   0.88503   0.21452
H          H       0.36986   0.06711   0.20331
H          H       0.63014   0.93289   0.20331
H          H       0.93289   0.36986   0.20331
H          H       0.06711   0.63014   0.20331
H          H       0.03379   0.49316   0.18383
H          H       0.96621   0.50684   0.18383
H          H       0.50684   0.03379   0.18383
H          H       0.49316   0.96621   0.18383
H          H       0.56419   0.13512   0.08652
H          H       0.43581   0.86488   0.08652
H          H       0.86488   0.56419   0.08652
H          H       0.13512   0.43581   0.08652
H          H       0.49320   0.14367   0.03337
H          H       0.50680   0.85633   0.03337
H          H       0.85633   0.49320   0.03337
H          H       0.14367   0.50680   0.03337
H          H       0.35064   0.99510   0.21840
H          H       0.64936   0.00490   0.21840
H          H       0.00490   0.35064   0.21840
H          H       0.99510   0.64936   0.21840
H          H       0.76192   0.03220   0.09445
H          H       0.23808   0.96780   0.09445
H          H       0.96780   0.76192   0.09445
H          H       0.03220   0.23808   0.09445
C          C       0.84343   0.97274   0.30329
C          C       0.15657   0.02726   0.30329
C          C       0.02726   0.84343   0.30329
C          C       0.97274   0.15657   0.30329
H          H       0.87522   0.01317   0.21138
H          H       0.12478   0.98683   0.21138
H          H       0.98683   0.87522   0.21138
H          H       0.01317   0.12478   0.21138
H          H       0.86548   0.95016   0.29757
H          H       0.13452   0.04984   0.29757
H          H       0.04984   0.86548   0.29757
H          H       0.95016   0.13452   0.29757
H          H       0.81543   0.95854   0.30856
H          H       0.18457   0.04146   0.30856
H          H       0.04146   0.81543   0.30856
H          H       0.95854   0.18457   0.30856
H          H       0.84866   0.98868   0.38198
H          H       0.15134   0.01132   0.38198
H          H       0.01132   0.84866   0.38198
H          H       0.98868   0.15134   0.38198
H          H       0.40871   0.33452   0.32655
H          H       0.59129   0.66548   0.32655
H          H       0.66548   0.40871   0.32655
H          H       0.33452   0.59129   0.32655
H          H       0.41718   0.29921   0.42729
H          H       0.58282   0.70079   0.42729
H          H       0.70079   0.41718   0.42729
H          H       0.29921   0.58282   0.42729
H          H       0.38429   0.25208   0.33524
H          H       0.61571   0.74792   0.33524
H          H       0.74792   0.38429   0.33524
H          H       0.25208   0.61571   0.33524
H          H       0.39398   0.26974   0.19754
H          H       0.60602   0.73026   0.19754
H          H       0.73026   0.39398   0.19754
H          H       0.26974   0.60602   0.19754
H          H       0.35918   0.29321   0.28396
H          H       0.64082   0.70679   0.28396
H          H       0.70679   0.35918   0.28396
H          H       0.29321   0.64082   0.28396
H          H       0.45674   0.24772   0.39757
H          H       0.54326   0.75228   0.39757
H          H       0.75228   0.45674   0.39757
H          H       0.24772   0.54326   0.39757
H          H       0.45022   0.23787   0.25449
H          H       0.54978   0.76213   0.25449
H          H       0.76213   0.45022   0.25449
H          H       0.23787   0.54978   0.25449
H          H       0.68070   0.10402   0.37749
H          H       0.31930   0.89598   0.37749
H          H       0.89598   0.68070   0.37749
H          H       0.10402   0.31930   0.37749
H          H       0.62459   0.06063   0.34092
H          H       0.37541   0.93937   0.34092
H          H       0.93937   0.62459   0.34092
H          H       0.06063   0.37541   0.34092
N          N       0.18431   0.97168   0.68438
N          N       0.81569   0.02832   0.68438
N          N       0.02832   0.18431   0.68438
N          N       0.97168   0.81569   0.68438
C          C       0.20037   0.95830   0.79395
C          C       0.79963   0.04170   0.79395
C          C       0.04170   0.20037   0.79395
C          C       0.95830   0.79963   0.79395
C          C       0.16801   0.93895   0.61850
C          C       0.83199   0.06105   0.61850
C          C       0.06105   0.16801   0.61850
C          C       0.93895   0.83199   0.61850
C          C       0.15288   0.00061   0.70121
C          C       0.84712   0.99939   0.70121
C          C       0.99939   0.15288   0.70121
C          C       0.00061   0.84712   0.70121
N          N       0.29776   0.54282   0.79131
N          N       0.70224   0.45718   0.79131
N          N       0.45718   0.29776   0.79131
N          N       0.54282   0.70224   0.79131
C          C       0.30799   0.53782   0.66862
C          C       0.69201   0.46218   0.66862
C          C       0.46218   0.30799   0.66862
C          C       0.53782   0.69201   0.66862
C          C       0.32372   0.51593   0.85184
C          C       0.67628   0.48407   0.85184
C          C       0.48407   0.32372   0.85184
C          C       0.51593   0.67628   0.85184
C          C       0.30438   0.58230   0.83565
C          C       0.69562   0.41770   0.83565
C          C       0.41770   0.30438   0.83565
C          C       0.58230   0.69562   0.83565
N          N       0.15692   0.29306   0.73874
N          N       0.84308   0.70694   0.73874
N          N       0.70694   0.15692   0.73874
N          N       0.29306   0.84308   0.73874
C          C       0.22865   0.25297   0.69588
C          C       0.77135   0.74703   0.69588
C          C       0.74703   0.22865   0.69588
C          C       0.25297   0.77135   0.69588
C          C       0.25983   0.22813   0.69287
C          C       0.74017   0.77187   0.69287
C          C       0.77187   0.25983   0.69287
C          C       0.22813   0.74017   0.69287
C          C       0.28725   0.22771   0.77879
C          C       0.71275   0.77229   0.77879
C          C       0.77229   0.28725   0.77879
C          C       0.22771   0.71275   0.77879
C          C       0.31797   0.19740   0.77796
C          C       0.68203   0.80260   0.77796
C          C       0.80260   0.31797   0.77796
C          C       0.19740   0.68203   0.77796
O          O       0.20215   0.25506   0.60699
O          O       0.79785   0.74494   0.60699
O          O       0.74494   0.20215   0.60699
O          O       0.25506   0.79785   0.60699
C          C       0.19615   0.22166   0.54080
C          C       0.80385   0.77834   0.54080
C          C       0.77834   0.19615   0.54080
C          C       0.22166   0.80385   0.54080
C          C       0.30023   0.15960   0.76621
C          C       0.69977   0.84040   0.76621
C          C       0.84040   0.30023   0.76621
C          C       0.15960   0.69977   0.76621
C          C       0.37664   0.15761   0.56371
C          C       0.62336   0.84239   0.56371
C          C       0.84239   0.37664   0.56371
C          C       0.15761   0.62336   0.56371
C          C       0.40161   0.12717   0.54961
C          C       0.59839   0.87283   0.54961
C          C       0.87283   0.40161   0.54961
C          C       0.12717   0.59839   0.54961
C          C       0.42549   0.11591   0.63806
C          C       0.57451   0.88409   0.63806
C          C       0.88409   0.42549   0.63806
C          C       0.11591   0.57451   0.63806
C          C       0.38829   0.04349   0.68378
C          C       0.61171   0.95651   0.68378
C          C       0.95651   0.38829   0.68378
C          C       0.04349   0.61171   0.68378
C          C       0.37811   0.00566   0.69185
C          C       0.62189   0.99434   0.69185
C          C       0.99434   0.37811   0.69185
C          C       0.00566   0.62189   0.69185
N          N       0.44093   0.01090   0.62901
N          N       0.55907   0.98910   0.62901
N          N       0.98910   0.44093   0.62901
N          N       0.01090   0.55907   0.62901
C          C       0.42603   0.04573   0.64785
C          C       0.57397   0.95427   0.64785
C          C       0.95427   0.42603   0.64785
C          C       0.04573   0.57397   0.64785
C          C       0.44671   0.07974   0.63102
C          C       0.55329   0.92026   0.63102
C          C       0.92026   0.44671   0.63102
C          C       0.07974   0.55329   0.63102
C          C       0.28544   0.12929   0.74831
C          C       0.71456   0.87071   0.74831
C          C       0.87071   0.28544   0.74831
C          C       0.12929   0.71456   0.74831
C          C       0.26713   0.09406   0.71915
C          C       0.73287   0.90594   0.71915
C          C       0.90594   0.26713   0.71915
C          C       0.09406   0.73287   0.71915
C          C       0.23676   0.09450   0.64372
C          C       0.76324   0.90550   0.64372
C          C       0.90550   0.23676   0.64372
C          C       0.09450   0.76324   0.64372
C          C       0.21985   0.06048   0.60969
C          C       0.78015   0.93952   0.60969
C          C       0.93952   0.21985   0.60969
C          C       0.06048   0.78015   0.60969
C          C       0.23271   0.02543   0.65266
C          C       0.76729   0.97457   0.65266
C          C       0.97457   0.23271   0.65266
C          C       0.02543   0.76729   0.65266
C          C       0.26399   0.02518   0.72601
C          C       0.73601   0.97482   0.72601
C          C       0.97482   0.26399   0.72601
C          C       0.02518   0.73601   0.72601
C          C       0.28089   0.05934   0.75999
C          C       0.71911   0.94066   0.75999
C          C       0.94066   0.28089   0.75999
C          C       0.05934   0.71911   0.75999
C          C       0.12806   0.32036   0.71300
C          C       0.87194   0.67964   0.71300
C          C       0.67964   0.12806   0.71300
C          C       0.32036   0.87194   0.71300
C          C       0.07930   0.38179   0.66973
C          C       0.92070   0.61821   0.66973
C          C       0.61821   0.07930   0.66973
C          C       0.38179   0.92070   0.66973
C          C       0.07912   0.36426   0.77565
C          C       0.92088   0.63574   0.77565
C          C       0.63574   0.07912   0.77565
C          C       0.36426   0.92088   0.77565
C          C       0.10347   0.33332   0.79661
C          C       0.89653   0.66668   0.79661
C          C       0.66668   0.10347   0.79661
C          C       0.33332   0.89653   0.79661
C          C       0.01567   0.41202   0.65797
C          C       0.98433   0.58798   0.65797
C          C       0.58798   0.01567   0.65797
C          C       0.41202   0.98433   0.65797
C          C       0.05552   0.41563   0.64929
C          C       0.94448   0.58437   0.64929
C          C       0.58437   0.05552   0.64929
C          C       0.41563   0.94448   0.64929
C          C       0.21494   0.98861   0.61135
C          C       0.78506   0.01139   0.61135
C          C       0.01139   0.21494   0.61135
C          C       0.98861   0.78506   0.61135
C          C       0.07928   0.51507   0.57071
C          C       0.92072   0.48493   0.57071
C          C       0.48493   0.07928   0.57071
C          C       0.51507   0.92072   0.57071
N          N       0.05460   0.48687   0.62459
N          N       0.94540   0.51313   0.62459
N          N       0.51313   0.05460   0.62459
N          N       0.48687   0.94540   0.62459
C          C       0.07304   0.45071   0.62184
C          C       0.92696   0.54929   0.62184
C          C       0.54929   0.07304   0.62184
C          C       0.45071   0.92696   0.62184
C          C       0.19002   0.30299   0.80783
C          C       0.80998   0.69701   0.80783
C          C       0.69701   0.19002   0.80783
C          C       0.30299   0.80998   0.80783
C          C       0.22468   0.27795   0.78786
C          C       0.77532   0.72205   0.78786
C          C       0.72205   0.22468   0.78786
C          C       0.27795   0.77532   0.78786
C          C       0.20082   0.34328   0.79562
C          C       0.79918   0.65672   0.79562
C          C       0.65672   0.20082   0.79562
C          C       0.34328   0.79918   0.79562
C          C       0.20960   0.37631   0.79175
C          C       0.79040   0.62369   0.79175
C          C       0.62369   0.20960   0.79175
C          C       0.37631   0.79040   0.79175
C          C       0.22103   0.41550   0.79479
C          C       0.77897   0.58450   0.79479
C          C       0.58450   0.22103   0.79479
C          C       0.41550   0.77897   0.79479
C          C       0.23665   0.43005   0.89317
C          C       0.76335   0.56995   0.89317
C          C       0.56995   0.23665   0.89317
C          C       0.43005   0.76335   0.89317
C          C       0.24767   0.46808   0.89901
C          C       0.75233   0.53192   0.89901
C          C       0.53192   0.24767   0.89901
C          C       0.46808   0.75233   0.89901
C          C       0.24496   0.49177   0.80453
C          C       0.75504   0.50823   0.80453
C          C       0.50823   0.24496   0.80453
C          C       0.49177   0.75504   0.80453
C          C       0.22794   0.47733   0.70708
C          C       0.77206   0.52267   0.70708
C          C       0.52267   0.22794   0.70708
C          C       0.47733   0.77206   0.70708
C          C       0.21611   0.43931   0.70198
C          C       0.78389   0.56069   0.70198
C          C       0.56069   0.21611   0.70198
C          C       0.43931   0.78389   0.70198
C          C       0.28531   0.25513   0.86432
C          C       0.71469   0.74487   0.86432
C          C       0.74487   0.28531   0.86432
C          C       0.25513   0.71469   0.86432
C          C       0.25368   0.27948   0.86893
C          C       0.74632   0.72052   0.86893
C          C       0.72052   0.25368   0.86893
C          C       0.27948   0.74632   0.86893
O          O       0.31515   0.25652   0.94378
O          O       0.68485   0.74348   0.94378
O          O       0.74348   0.31515   0.94378
O          O       0.25652   0.68485   0.94378
C          C       0.31873   0.28964   0.51210
C          C       0.68127   0.71036   0.51210
C          C       0.71036   0.31873   0.51210
C          C       0.28964   0.68127   0.51210
N          N       0.34462   0.20341   0.68525
N          N       0.65538   0.79659   0.68525
N          N       0.79659   0.34462   0.68525
N          N       0.20341   0.65538   0.68525
C          C       0.37495   0.17691   0.66609
C          C       0.62505   0.82309   0.66609
C          C       0.82309   0.37495   0.66609
C          C       0.17691   0.62505   0.66609
C          C       0.42556   0.13681   0.73759
C          C       0.57444   0.86319   0.73759
C          C       0.86319   0.42556   0.73759
C          C       0.13681   0.57444   0.73759
C          C       0.40031   0.16716   0.75199
C          C       0.59969   0.83284   0.75199
C          C       0.83284   0.40031   0.75199
C          C       0.16716   0.59969   0.75199
C          C       0.54327   0.11276   0.59147
C          C       0.45673   0.88724   0.59147
C          C       0.88724   0.54327   0.59147
C          C       0.11276   0.45673   0.59147
C          C       0.50522   0.11731   0.56512
C          C       0.49478   0.88269   0.56512
C          C       0.88269   0.50522   0.56512
C          C       0.11731   0.49478   0.56512
C          C       0.12753   0.33705   0.60692
C          C       0.87247   0.66295   0.60692
C          C       0.66295   0.12753   0.60692
C          C       0.33705   0.87247   0.60692
C          C       0.10289   0.36723   0.58440
C          C       0.89711   0.63277   0.58440
C          C       0.63277   0.10289   0.58440
C          C       0.36723   0.89711   0.58440
C          C       0.25639   0.53337   0.81266
C          C       0.74361   0.46663   0.81266
C          C       0.46663   0.25639   0.81266
C          C       0.53337   0.74361   0.81266
C          C       0.56639   0.66230   0.62379
C          C       0.43361   0.33770   0.62379
C          C       0.33770   0.56639   0.62379
C          C       0.66230   0.43361   0.62379
C          C       0.48037   0.66956   0.77694
C          C       0.51963   0.33044   0.77694
C          C       0.33044   0.48037   0.77694
C          C       0.66956   0.51963   0.77694
C          C       0.23013   0.92613   0.78715
C          C       0.76987   0.07387   0.78715
C          C       0.07387   0.23013   0.78715
C          C       0.92613   0.76987   0.78715
C          C       0.14034   0.91221   0.68144
C          C       0.85966   0.08779   0.68144
C          C       0.08779   0.14034   0.68144
C          C       0.91221   0.85966   0.68144
H          H       0.17701   0.94856   0.84975
H          H       0.82299   0.05144   0.84975
H          H       0.05144   0.17701   0.84975
H          H       0.94856   0.82299   0.84975
H          H       0.21434   0.98209   0.83874
H          H       0.78566   0.01791   0.83874
H          H       0.01791   0.21434   0.83874
H          H       0.98209   0.78566   0.83874
H          H       0.19109   0.92072   0.58365
H          H       0.80891   0.07928   0.58365
H          H       0.07928   0.19109   0.58365
H          H       0.92072   0.80891   0.58365
H          H       0.15240   0.94997   0.54415
H          H       0.84760   0.05003   0.54415
H          H       0.05003   0.15240   0.54415
H          H       0.94997   0.84760   0.54415
H          H       0.14937   0.01851   0.62517
H          H       0.85063   0.98149   0.62517
H          H       0.98149   0.14937   0.62517
H          H       0.01851   0.85063   0.62517
H          H       0.28258   0.53865   0.61223
H          H       0.71742   0.46135   0.61223
H          H       0.46135   0.28258   0.61223
H          H       0.53865   0.71742   0.61223
H          H       0.33026   0.50624   0.66084
H          H       0.66974   0.49376   0.66084
H          H       0.49376   0.33026   0.66084
H          H       0.50624   0.66974   0.66084
H          H       0.31290   0.50812   0.93578
H          H       0.68710   0.49188   0.93578
H          H       0.49188   0.31290   0.93578
H          H       0.50812   0.68710   0.93578
H          H       0.35223   0.52910   0.86491
H          H       0.64777   0.47090   0.86491
H          H       0.47090   0.35223   0.86491
H          H       0.52910   0.64777   0.86491
C          C       0.27837   0.61294   0.78434
C          C       0.72163   0.38706   0.78434
C          C       0.38706   0.27837   0.78434
C          C       0.61294   0.72163   0.78434
H          H       0.14798   0.26482   0.73989
H          H       0.85202   0.73518   0.73989
H          H       0.73518   0.14798   0.73989
H          H       0.26482   0.85202   0.73989
H          H       0.26324   0.20830   0.62450
H          H       0.73676   0.79170   0.62450
H          H       0.79170   0.26324   0.62450
H          H       0.20830   0.73676   0.62450
H          H       0.33412   0.19777   0.85704
H          H       0.66588   0.80223   0.85704
H          H       0.80223   0.33412   0.85704
H          H       0.19777   0.66588   0.85704
H          H       0.18943   0.19678   0.59479
H          H       0.81057   0.80322   0.59479
H          H       0.80322   0.18943   0.59479
H          H       0.19678   0.81057   0.59479
H          H       0.22121   0.21576   0.98718
H          H       0.77879   0.78424   0.98718
H          H       0.78424   0.22121   0.98718
H          H       0.21576   0.77879   0.98718
H          H       0.17150   0.22685   0.98471
H          H       0.82850   0.77315   0.98471
H          H       0.77315   0.17150   0.98471
H          H       0.22685   0.82850   0.98471
H          H       0.35650   0.16429   0.99843
H          H       0.64350   0.83571   0.99843
H          H       0.83571   0.35650   0.99843
H          H       0.16429   0.64350   0.99843
H          H       0.40092   0.11115   0.97228
H          H       0.59908   0.88885   0.97228
H          H       0.88885   0.40092   0.97228
H          H       0.11115   0.59908   0.97228
H          H       0.22640   0.12122   0.60997
H          H       0.77360   0.87878   0.60997
H          H       0.87878   0.22640   0.60997
H          H       0.12122   0.77360   0.60997
H          H       0.19672   0.06151   0.55007
H          H       0.80328   0.93849   0.55007
H          H       0.93849   0.19672   0.55007
H          H       0.06151   0.80328   0.55007
H          H       0.27561   0.99864   0.75646
H          H       0.72439   0.00136   0.75646
H          H       0.00136   0.27561   0.75646
H          H       0.99864   0.72439   0.75646
H          H       0.30493   0.05865   0.81664
H          H       0.69507   0.94135   0.81664
H          H       0.94135   0.30493   0.81664
H          H       0.05865   0.69507   0.81664
H          H       0.20307   0.99442   0.52680
H          H       0.79693   0.00558   0.52680
H          H       0.00558   0.20307   0.52680
H          H       0.99442   0.79693   0.52680
H          H       0.18085   0.29858   0.89546
H          H       0.81915   0.70142   0.89546
H          H       0.70142   0.18085   0.89546
H          H       0.29858   0.81915   0.89546
H          H       0.24028   0.41187   0.96571
H          H       0.75972   0.58813   0.96571
H          H       0.58813   0.24028   0.96571
H          H       0.41187   0.75972   0.96571
H          H       0.25884   0.47880   0.97686
H          H       0.74116   0.52120   0.97686
H          H       0.52120   0.25884   0.97686
H          H       0.47880   0.74116   0.97686
H          H       0.22338   0.49568   0.63577
H          H       0.77662   0.50432   0.63577
H          H       0.50432   0.22338   0.63577
H          H       0.49568   0.77662   0.63577
H          H       0.20303   0.42853   0.62660
H          H       0.79697   0.57147   0.62660
H          H       0.57147   0.20303   0.62660
H          H       0.42853   0.79697   0.62660
H          H       0.25047   0.29946   0.93726
H          H       0.74953   0.70054   0.93726
H          H       0.70054   0.25047   0.93726
H          H       0.29946   0.74953   0.93726
H          H       0.31983   0.31579   0.95989
H          H       0.68017   0.68421   0.95989
H          H       0.68421   0.31983   0.95989
H          H       0.31579   0.68017   0.95989
H          H       0.34580   0.28777   0.55939
H          H       0.65420   0.71223   0.55939
H          H       0.71223   0.34580   0.55939
H          H       0.28777   0.65420   0.55939
H          H       0.29515   0.29118   0.57365
H          H       0.70485   0.70882   0.57365
H          H       0.70882   0.29515   0.57365
H          H       0.29118   0.70485   0.57365
H          H       0.33537   0.21910   0.61632
H          H       0.66463   0.78090   0.61632
H          H       0.78090   0.33537   0.61632
H          H       0.21910   0.66463   0.61632
H          H       0.44415   0.12841   0.80516
H          H       0.55585   0.87159   0.80516
H          H       0.87159   0.44415   0.80516
H          H       0.12841   0.55585   0.80516
H          H       0.39975   0.18201   0.83106
H          H       0.60025   0.81799   0.83106
H          H       0.81799   0.39975   0.83106
H          H       0.18201   0.60025   0.83106
H          H       0.14699   0.32701   0.54332
H          H       0.85301   0.67299   0.54332
H          H       0.67299   0.14699   0.54332
H          H       0.32701   0.85301   0.54332
H          H       0.10285   0.38026   0.50213
H          H       0.89715   0.61974   0.50213
H          H       0.61974   0.10285   0.50213
H          H       0.38026   0.89715   0.50213
H          H       0.55708   0.65230   0.54067
H          H       0.44292   0.34770   0.54067
H          H       0.34770   0.55708   0.54067
H          H       0.65230   0.44292   0.54067
H          H       0.56679   0.63661   0.67786
H          H       0.43321   0.36339   0.67786
H          H       0.36339   0.56679   0.67786
H          H       0.63661   0.43321   0.67786
H          H       0.59553   0.67384   0.61452
H          H       0.40447   0.32616   0.61452
H          H       0.32616   0.59553   0.61452
H          H       0.67384   0.40447   0.61452
H          H       0.47363   0.63848   0.76771
H          H       0.52637   0.36152   0.76771
H          H       0.36152   0.47363   0.76771
H          H       0.63848   0.52637   0.76771
H          H       0.49033   0.69097   0.68791
H          H       0.50967   0.30903   0.68791
H          H       0.30903   0.49033   0.68791
H          H       0.69097   0.50967   0.68791
H          H       0.45486   0.68273   0.81562
H          H       0.54514   0.31727   0.81562
H          H       0.31727   0.45486   0.81562
H          H       0.68273   0.54514   0.81562
H          H       0.21870   0.90030   0.74642
H          H       0.78130   0.09970   0.74642
H          H       0.09970   0.21870   0.74642
H          H       0.90030   0.78130   0.74642
H          H       0.23864   0.91801   0.87339
H          H       0.76136   0.08199   0.87339
H          H       0.08199   0.23864   0.87339
H          H       0.91801   0.76136   0.87339
H          H       0.25629   0.93521   0.74304
H          H       0.74371   0.06479   0.74304
H          H       0.06479   0.25629   0.74304
H          H       0.93521   0.74371   0.74304
H          H       0.15439   0.89678   0.75084
H          H       0.84561   0.10322   0.75084
H          H       0.10322   0.15439   0.75084
H          H       0.89678   0.84561   0.75084
H          H       0.12986   0.89027   0.62209
H          H       0.87014   0.10973   0.62209
H          H       0.10973   0.12986   0.62209
H          H       0.89027   0.87014   0.62209
H          H       0.11497   0.92709   0.71452
H          H       0.88503   0.07291   0.71452
H          H       0.07291   0.11497   0.71452
H          H       0.92709   0.88503   0.71452
H          H       0.36986   0.06711   0.70331
H          H       0.63014   0.93289   0.70331
H          H       0.93289   0.36986   0.70331
H          H       0.06711   0.63014   0.70331
H          H       0.03379   0.49316   0.68383
H          H       0.96621   0.50684   0.68383
H          H       0.50684   0.03379   0.68383
H          H       0.49316   0.96621   0.68383
H          H       0.56419   0.13512   0.58652
H          H       0.43581   0.86488   0.58652
H          H       0.86488   0.56419   0.58652
H          H       0.13512   0.43581   0.58652
H          H       0.49320   0.14367   0.53337
H          H       0.50680   0.85633   0.53337
H          H       0.85633   0.49320   0.53337
H          H       0.14367   0.50680   0.53337
H          H       0.35064   0.99510   0.71841
H          H       0.64936   0.00490   0.71841
H          H       0.00490   0.35064   0.71841
H          H       0.99510   0.64936   0.71841
H          H       0.76192   0.03220   0.59445
H          H       0.23808   0.96780   0.59445
H          H       0.96780   0.76192   0.59445
H          H       0.03220   0.23808   0.59445
C          C       0.84343   0.97274   0.80329
C          C       0.15657   0.02726   0.80329
C          C       0.02726   0.84343   0.80329
C          C       0.97274   0.15657   0.80329
H          H       0.87522   0.01317   0.71138
H          H       0.12478   0.98683   0.71138
H          H       0.98683   0.87522   0.71138
H          H       0.01317   0.12478   0.71138
H          H       0.86548   0.95016   0.79757
H          H       0.13452   0.04984   0.79757
H          H       0.04984   0.86548   0.79757
H          H       0.95016   0.13452   0.79757
H          H       0.81543   0.95854   0.80855
H          H       0.18457   0.04146   0.80855
H          H       0.04146   0.81543   0.80855
H          H       0.95854   0.18457   0.80855
H          H       0.84866   0.98868   0.88198
H          H       0.15134   0.01132   0.88198
H          H       0.01132   0.84866   0.88198
H          H       0.98868   0.15134   0.88198
H          H       0.40871   0.33452   0.82656
H          H       0.59129   0.66548   0.82656
H          H       0.66548   0.40871   0.82656
H          H       0.33452   0.59129   0.82656
H          H       0.41718   0.29921   0.92729
H          H       0.58282   0.70079   0.92729
H          H       0.70079   0.41718   0.92729
H          H       0.29921   0.58282   0.92729
H          H       0.38429   0.25208   0.83523
H          H       0.61571   0.74792   0.83523
H          H       0.74792   0.38429   0.83523
H          H       0.25208   0.61571   0.83523
H          H       0.39398   0.26974   0.69754
H          H       0.60602   0.73026   0.69754
H          H       0.73026   0.39398   0.69754
H          H       0.26974   0.60602   0.69754
H          H       0.35918   0.29321   0.78396
H          H       0.64082   0.70679   0.78396
H          H       0.70679   0.35918   0.78396
H          H       0.29321   0.64082   0.78396
H          H       0.45674   0.24772   0.89757
H          H       0.54326   0.75228   0.89757
H          H       0.75228   0.45674   0.89757
H          H       0.24772   0.54326   0.89757
H          H       0.45022   0.23787   0.75449
H          H       0.54978   0.76213   0.75449
H          H       0.76213   0.45022   0.75449
H          H       0.23787   0.54978   0.75449
H          H       0.68070   0.10402   0.87748
H          H       0.31930   0.89598   0.87748
H          H       0.89598   0.68070   0.87748
H          H       0.10402   0.31930   0.87748
H          H       0.62459   0.06063   0.84092
H          H       0.37541   0.93937   0.84092
H          H       0.93937   0.62459   0.84092
H          H       0.06063   0.37541   0.84092
