data_crystal

_cell_length_a    35.12900
_cell_length_b    35.12900
_cell_length_c    11.96820
_cell_angle_alpha 90.00000
_cell_angle_beta  90.00000
_cell_angle_gamma 90.00000

_space_group_name_Hall 'P 1'
_space_group_name_H-M_alt 'P 1'

loop_
_symmetry_equiv_pos_as_xyz
 'x,y,z'

loop_
_atom_site_label
_atom_site_type_symbol
_atom_site_fract_x
_atom_site_fract_y
_atom_site_fract_z
N          N       0.20342   0.96138   0.32689
N          N       0.79658   0.03862   0.32689
N          N       0.03862   0.20342   0.32689
N          N       0.96138   0.79658   0.32689
N          N       0.30481   0.53135   0.36487
N          N       0.69519   0.46865   0.36487
N          N       0.46865   0.30481   0.36487
N          N       0.53135   0.69519   0.36487
C          C       0.53615   0.07259   0.21572
C          C       0.46385   0.92741   0.21572
C          C       0.92741   0.53615   0.21572
C          C       0.07259   0.46385   0.21572
N          N       0.16718   0.31336   0.13669
N          N       0.83282   0.68664   0.13669
N          N       0.68664   0.16718   0.13669
N          N       0.31336   0.83282   0.13669
C          C       0.20750   0.31604   0.11726
C          C       0.79250   0.68396   0.11726
C          C       0.68396   0.20750   0.11726
C          C       0.31604   0.79250   0.11726
C          C       0.21823   0.24658   0.16472
C          C       0.78177   0.75342   0.16472
C          C       0.75342   0.21823   0.16472
C          C       0.24658   0.78177   0.16472
C          C       0.24263   0.21793   0.17691
C          C       0.75737   0.78207   0.17691
C          C       0.78207   0.24263   0.17691
C          C       0.21793   0.75737   0.17691
C          C       0.28132   0.22249   0.17580
C          C       0.71868   0.77751   0.17580
C          C       0.77751   0.28132   0.17580
C          C       0.22249   0.71868   0.17580
O          O       0.18010   0.24199   0.17227
O          O       0.81990   0.75801   0.17227
O          O       0.75801   0.18010   0.17227
O          O       0.24199   0.81990   0.17227
C          C       0.16430   0.21318   0.10337
C          C       0.83570   0.78682   0.10337
C          C       0.78682   0.16430   0.10337
C          C       0.21318   0.83570   0.10337
N          N       0.34236   0.19233   0.21754
N          N       0.65764   0.80767   0.21754
N          N       0.80767   0.34236   0.21754
N          N       0.19233   0.65764   0.21754
C          C       0.28849   0.15665   0.22270
C          C       0.71151   0.84335   0.22270
C          C       0.84335   0.28849   0.22270
C          C       0.15665   0.71151   0.22270
C          C       0.36564   0.16138   0.23070
C          C       0.63436   0.83862   0.23070
C          C       0.83862   0.36564   0.23070
C          C       0.16138   0.63436   0.23070
C          C       0.36688   0.14242   0.33376
C          C       0.63312   0.85758   0.33376
C          C       0.85758   0.36688   0.33376
C          C       0.14242   0.63312   0.33376
C          C       0.38955   0.11191   0.34387
C          C       0.61045   0.88809   0.34387
C          C       0.88809   0.38955   0.34387
C          C       0.11191   0.61045   0.34387
C          C       0.41142   0.10109   0.25021
C          C       0.58858   0.89891   0.25021
C          C       0.89891   0.41142   0.25021
C          C       0.10109   0.58858   0.25021
C          C       0.41886   0.97595   0.25071
C          C       0.58114   0.02405   0.25071
C          C       0.02405   0.41886   0.25071
C          C       0.97595   0.58114   0.25071
N          N       0.44319   0.00365   0.24108
N          N       0.55681   0.99635   0.24108
N          N       0.99635   0.44319   0.24108
N          N       0.00365   0.55681   0.24108
C          C       0.43764   0.07011   0.25874
C          C       0.56236   0.92989   0.25874
C          C       0.92989   0.43764   0.25874
C          C       0.07011   0.56236   0.25874
C          C       0.27561   0.12842   0.25425
C          C       0.72439   0.87158   0.25425
C          C       0.87158   0.27561   0.25425
C          C       0.12842   0.72439   0.25425
C          C       0.26024   0.09339   0.27441
C          C       0.73976   0.90661   0.27441
C          C       0.90661   0.26024   0.27441
C          C       0.09339   0.73976   0.27441
C          C       0.23777   0.07906   0.18813
C          C       0.76223   0.92094   0.18813
C          C       0.92094   0.23777   0.18813
C          C       0.07906   0.76223   0.18813
C          C       0.22970   0.04182   0.19108
C          C       0.77030   0.95818   0.19108
C          C       0.95818   0.22970   0.19108
C          C       0.04182   0.77030   0.19108
C          C       0.24024   0.01983   0.28399
C          C       0.75976   0.98017   0.28399
C          C       0.98017   0.24024   0.28399
C          C       0.01983   0.75976   0.28399
C          C       0.26081   0.03537   0.37303
C          C       0.73919   0.96463   0.37303
C          C       0.96463   0.26081   0.37303
C          C       0.03537   0.73919   0.37303
C          C       0.26990   0.07243   0.36889
C          C       0.73010   0.92757   0.36889
C          C       0.92757   0.26990   0.36889
C          C       0.07243   0.73010   0.36889
C          C       0.14155   0.34243   0.16403
C          C       0.85845   0.65757   0.16403
C          C       0.65757   0.14155   0.16403
C          C       0.34243   0.85845   0.16403
C          C       0.07999   0.36673   0.13525
C          C       0.92001   0.63327   0.13525
C          C       0.63327   0.07999   0.13525
C          C       0.36673   0.92001   0.13525
C          C       0.10615   0.33971   0.11828
C          C       0.89385   0.66029   0.11828
C          C       0.66029   0.10615   0.11828
C          C       0.33971   0.89385   0.11828
C          C       0.97509   0.38880   0.29516
C          C       0.02491   0.61120   0.29516
C          C       0.61120   0.97509   0.29516
C          C       0.38880   0.02491   0.29516
C          C       0.01187   0.38601   0.28876
C          C       0.98813   0.61399   0.28876
C          C       0.61399   0.01187   0.28876
C          C       0.38601   0.98813   0.28876
C          C       0.96589   0.42399   0.26616
C          C       0.03411   0.57601   0.26616
C          C       0.57601   0.96589   0.26616
C          C       0.42399   0.03411   0.26616
C          C       0.06053   0.42708   0.22620
C          C       0.93947   0.57292   0.22620
C          C       0.57292   0.06053   0.22620
C          C       0.42708   0.93947   0.22620
H          H       0.15625   0.29373   0.08236
H          H       0.84375   0.70627   0.08236
H          H       0.70627   0.15625   0.08236
H          H       0.29373   0.84375   0.08236
H          H       0.23207   0.19106   0.19139
H          H       0.76793   0.80894   0.19139
H          H       0.80894   0.23207   0.19139
H          H       0.19106   0.76793   0.19139
H          H       0.30909   0.18284   0.07556
H          H       0.69091   0.81716   0.07556
H          H       0.81716   0.30909   0.07556
H          H       0.18284   0.69091   0.07556
H          H       0.17958   0.18626   0.10371
H          H       0.82042   0.81374   0.10371
H          H       0.81374   0.17958   0.10371
H          H       0.18626   0.82042   0.10371
H          H       0.16070   0.22268   0.01229
H          H       0.83930   0.77732   0.01229
H          H       0.77732   0.16070   0.01229
H          H       0.22268   0.83930   0.01229
H          H       0.13642   0.20737   0.13859
H          H       0.86358   0.79263   0.13859
H          H       0.79263   0.13642   0.13859
H          H       0.20737   0.86358   0.13859
H          H       0.35798   0.21340   0.18640
H          H       0.64202   0.78660   0.18640
H          H       0.78660   0.35798   0.18640
H          H       0.21340   0.64202   0.18640
H          H       0.34860   0.14960   0.40280
H          H       0.65140   0.85040   0.40280
H          H       0.85040   0.34860   0.40280
H          H       0.14960   0.65140   0.40280
H          H       0.38867   0.09561   0.42197
H          H       0.61133   0.90439   0.42197
H          H       0.90439   0.38867   0.42197
H          H       0.09561   0.61133   0.42197
H          H       0.50494   0.03086   0.30805
H          H       0.49506   0.96914   0.30805
H          H       0.96914   0.50494   0.30805
H          H       0.03086   0.49506   0.30805
H          H       0.22942   0.09478   0.11395
H          H       0.77058   0.90522   0.11395
H          H       0.90522   0.22942   0.11395
H          H       0.09478   0.77058   0.11395
H          H       0.21531   0.03040   0.11932
H          H       0.78469   0.96960   0.11932
H          H       0.96960   0.21531   0.11932
H          H       0.03040   0.78469   0.11932
C          C       0.23730   0.97871   0.27779
C          C       0.76270   0.02129   0.27779
C          C       0.02129   0.23730   0.27779
C          C       0.97871   0.76270   0.27779
H          H       0.27231   0.01911   0.44223
H          H       0.72769   0.98089   0.44223
H          H       0.98089   0.27231   0.44223
H          H       0.01911   0.72769   0.44223
H          H       0.28751   0.08373   0.43493
H          H       0.71249   0.91627   0.43493
H          H       0.91627   0.28751   0.43493
H          H       0.08373   0.71249   0.43493
H          H       0.05426   0.36376   0.09310
H          H       0.94574   0.63624   0.09310
H          H       0.63624   0.05426   0.09310
H          H       0.36376   0.94574   0.09310
H          H       0.09856   0.31567   0.07110
H          H       0.90144   0.68433   0.07110
H          H       0.68433   0.09856   0.07110
H          H       0.31567   0.90144   0.07110
C          C       0.10829   0.47427   0.19110
C          C       0.89171   0.52573   0.19110
C          C       0.52573   0.10829   0.19110
C          C       0.47427   0.89171   0.19110
C          C       0.11198   0.51071   0.21513
C          C       0.88802   0.48929   0.21513
C          C       0.48929   0.11198   0.21513
C          C       0.51071   0.88802   0.21513
C          C       0.07802   0.52469   0.24185
C          C       0.92198   0.47531   0.24185
C          C       0.47531   0.07802   0.24185
C          C       0.52469   0.92198   0.24185
N          N       0.05273   0.49539   0.25089
N          N       0.94727   0.50461   0.25089
N          N       0.50461   0.05273   0.25089
N          N       0.49539   0.94727   0.25089
C          C       0.08660   0.39651   0.21019
C          C       0.91340   0.60349   0.21019
C          C       0.60349   0.08660   0.21019
C          C       0.39651   0.91340   0.21019
C          C       0.23099   0.28207   0.14100
C          C       0.76901   0.71793   0.14100
C          C       0.71793   0.23099   0.14100
C          C       0.28207   0.76901   0.14100
C          C       0.22421   0.34668   0.17947
C          C       0.77579   0.65332   0.17947
C          C       0.65332   0.22421   0.17947
C          C       0.34668   0.77579   0.17947
C          C       0.23903   0.37123   0.23202
C          C       0.76097   0.62877   0.23202
C          C       0.62877   0.23903   0.23202
C          C       0.37123   0.76097   0.23202
C          C       0.25614   0.40277   0.28297
C          C       0.74386   0.59723   0.28297
C          C       0.59723   0.25614   0.28297
C          C       0.40277   0.74386   0.28297
C          C       0.29379   0.40683   0.28712
C          C       0.70621   0.59317   0.28712
C          C       0.59317   0.29379   0.28712
C          C       0.40683   0.70621   0.28712
C          C       0.30911   0.43582   0.34513
C          C       0.69089   0.56418   0.34513
C          C       0.56418   0.30911   0.34513
C          C       0.43582   0.69089   0.34513
C          C       0.28628   0.46428   0.38257
C          C       0.71372   0.53572   0.38257
C          C       0.53572   0.28628   0.38257
C          C       0.46428   0.71372   0.38257
C          C       0.24893   0.45967   0.38376
C          C       0.75107   0.54033   0.38376
C          C       0.54033   0.24893   0.38376
C          C       0.45967   0.75107   0.38376
C          C       0.23406   0.42918   0.33363
C          C       0.76594   0.57082   0.33363
C          C       0.57082   0.23406   0.33363
C          C       0.42918   0.76594   0.33363
C          C       0.29486   0.25895   0.16042
C          C       0.70514   0.74105   0.16042
C          C       0.74105   0.29486   0.16042
C          C       0.25895   0.70514   0.16042
C          C       0.26950   0.28660   0.13372
C          C       0.73050   0.71340   0.13372
C          C       0.71340   0.26950   0.13372
C          C       0.28660   0.73050   0.13372
C          C       0.30607   0.18838   0.16956
C          C       0.69393   0.81162   0.16956
C          C       0.81162   0.30607   0.16956
C          C       0.18838   0.69393   0.16956
O          O       0.33233   0.26668   0.17393
O          O       0.66767   0.73332   0.17393
O          O       0.73332   0.33233   0.17393
O          O       0.26668   0.66767   0.17393
C          C       0.34689   0.30158   0.14556
C          C       0.65311   0.69842   0.14556
C          C       0.69842   0.34689   0.14556
C          C       0.30158   0.65311   0.14556
C          C       0.40851   0.12037   0.14569
C          C       0.59149   0.87963   0.14569
C          C       0.87963   0.40851   0.14569
C          C       0.12037   0.59149   0.14569
C          C       0.38540   0.14919   0.13689
C          C       0.61460   0.85081   0.13689
C          C       0.85081   0.38540   0.13689
C          C       0.14919   0.61460   0.13689
C          C       0.14795   0.37249   0.23798
C          C       0.85205   0.62751   0.23798
C          C       0.62751   0.14795   0.23798
C          C       0.37249   0.85205   0.23798
C          C       0.12082   0.39755   0.26417
C          C       0.87918   0.60245   0.26417
C          C       0.60245   0.12082   0.26417
C          C       0.39755   0.87918   0.26417
H          H       0.21153   0.32271   0.02531
H          H       0.78847   0.67729   0.02531
H          H       0.67729   0.21153   0.02531
H          H       0.32271   0.78847   0.02531
H          H       0.31114   0.38753   0.24640
H          H       0.68886   0.61247   0.24640
H          H       0.61247   0.31114   0.24640
H          H       0.38753   0.68886   0.24640
H          H       0.33797   0.43822   0.35098
H          H       0.66203   0.56178   0.35098
H          H       0.56178   0.33797   0.35098
H          H       0.43822   0.66203   0.35098
C          C       0.30239   0.49803   0.44048
C          C       0.69761   0.50197   0.44048
C          C       0.50197   0.30239   0.44048
C          C       0.49803   0.69761   0.44048
H          H       0.23147   0.47905   0.42475
H          H       0.76853   0.52095   0.42475
H          H       0.52095   0.23147   0.42475
H          H       0.47905   0.76853   0.42475
H          H       0.20516   0.42602   0.33514
H          H       0.79484   0.57398   0.33514
H          H       0.57398   0.20516   0.33514
H          H       0.42602   0.79484   0.33514
H          H       0.28019   0.31334   0.11200
H          H       0.71981   0.68666   0.11200
H          H       0.68666   0.28019   0.11200
H          H       0.31334   0.71981   0.11200
H          H       0.34124   0.30656   0.05206
H          H       0.65876   0.69344   0.05206
H          H       0.69344   0.34124   0.05206
H          H       0.30656   0.65876   0.05206
H          H       0.37716   0.30115   0.15948
H          H       0.62284   0.69885   0.15948
H          H       0.69885   0.37716   0.15948
H          H       0.30115   0.62284   0.15948
H          H       0.33495   0.32189   0.20567
H          H       0.66505   0.67811   0.20567
H          H       0.67811   0.33495   0.20567
H          H       0.32189   0.66505   0.20567
H          H       0.42335   0.11111   0.07045
H          H       0.57665   0.88889   0.07045
H          H       0.88889   0.42335   0.07045
H          H       0.11111   0.57665   0.07045
H          H       0.17394   0.37792   0.27590
H          H       0.82606   0.62208   0.27590
H          H       0.62208   0.17394   0.27590
H          H       0.37792   0.82606   0.27590
H          H       0.12700   0.41937   0.32830
H          H       0.87300   0.58063   0.32830
H          H       0.58063   0.12700   0.32830
H          H       0.41937   0.87300   0.32830
H          H       0.63380   0.95839   0.32067
H          H       0.36620   0.04161   0.32067
H          H       0.04161   0.63380   0.32067
H          H       0.95839   0.36620   0.32067
H          H       0.63719   0.02748   0.31904
H          H       0.36281   0.97252   0.31904
H          H       0.97252   0.63719   0.31904
H          H       0.02748   0.36281   0.31904
H          H       0.54236   0.13090   0.16434
H          H       0.45764   0.86910   0.16434
H          H       0.86910   0.54236   0.16434
H          H       0.13090   0.45764   0.16434
H          H       0.47598   0.13823   0.21337
H          H       0.52402   0.86177   0.21337
H          H       0.86177   0.47598   0.21337
H          H       0.13823   0.52402   0.21337
H          H       0.61723   0.83754   0.05620
H          H       0.38277   0.16246   0.05620
H          H       0.16246   0.61723   0.05620
H          H       0.83754   0.38277   0.05620
C          C       0.92274   0.78683   0.35160
C          C       0.07726   0.21317   0.35160
C          C       0.21317   0.92274   0.35160
C          C       0.78683   0.07726   0.35160
C          C       0.96127   0.82450   0.23095
C          C       0.03873   0.17550   0.23095
C          C       0.17550   0.96127   0.23095
C          C       0.82450   0.03873   0.23095
C          C       0.97950   0.81047   0.43357
C          C       0.02050   0.18953   0.43357
C          C       0.18953   0.97950   0.43357
C          C       0.81047   0.02050   0.43357
C          C       0.52182   0.68400   0.24317
C          C       0.47818   0.31600   0.24317
C          C       0.31600   0.52182   0.24317
C          C       0.68400   0.47818   0.24317
C          C       0.55975   0.66946   0.41675
C          C       0.44025   0.33054   0.41675
C          C       0.33054   0.55975   0.41675
C          C       0.66946   0.44025   0.41675
C          C       0.54823   0.73220   0.34993
C          C       0.45177   0.26780   0.34993
C          C       0.26780   0.54823   0.34993
C          C       0.73220   0.45177   0.34993
H          H       0.09445   0.18871   0.36799
H          H       0.90555   0.81129   0.36799
H          H       0.81129   0.09445   0.36799
H          H       0.18871   0.90555   0.36799
C          C       0.08317   0.23808   0.45848
C          C       0.91683   0.76192   0.45848
C          C       0.76192   0.08317   0.45848
C          C       0.23808   0.91683   0.45848
H          H       0.03972   0.17250   0.48718
H          H       0.96028   0.82750   0.48718
H          H       0.82750   0.03972   0.48718
H          H       0.17250   0.96028   0.48718
C          C       0.98529   0.16688   0.41834
C          C       0.01471   0.83312   0.41834
C          C       0.83312   0.98529   0.41834
C          C       0.16688   0.01471   0.41834
H          H       0.01124   0.17417   0.19237
H          H       0.98876   0.82583   0.19237
H          H       0.82583   0.01124   0.19237
H          H       0.17417   0.98876   0.19237
C          C       0.05024   0.13628   0.26486
C          C       0.94976   0.86372   0.26486
C          C       0.86372   0.05024   0.26486
C          C       0.13628   0.94976   0.26486
H          H       0.43268   0.32014   0.00375
H          H       0.56732   0.67986   0.00375
H          H       0.67986   0.43268   0.00375
H          H       0.32014   0.56732   0.00375
H          H       0.41457   0.32847   0.36528
H          H       0.58543   0.67153   0.36528
H          H       0.67153   0.41457   0.36528
H          H       0.32847   0.58543   0.36528
H          H       0.47218   0.24733   0.32033
H          H       0.52782   0.75267   0.32033
H          H       0.75267   0.47218   0.32033
H          H       0.24733   0.52782   0.32033
H          H       0.43112   0.26755   0.27621
H          H       0.56888   0.73245   0.27621
H          H       0.73245   0.43112   0.27621
H          H       0.26755   0.56888   0.27621
H          H       0.49515   0.29456   0.20017
H          H       0.50485   0.70544   0.20017
H          H       0.70544   0.49515   0.20017
H          H       0.29456   0.50485   0.20017
C          C       0.49960   0.35211   0.22482
C          C       0.50040   0.64789   0.22482
C          C       0.64789   0.49960   0.22482
C          C       0.35211   0.50040   0.22482
H          H       0.09048   0.22636   0.27583
H          H       0.90952   0.77364   0.27583
H          H       0.77364   0.09048   0.27583
H          H       0.22636   0.90952   0.27583
H          H       0.05705   0.18447   0.16308
H          H       0.94295   0.81553   0.16308
H          H       0.81553   0.05705   0.16308
H          H       0.18447   0.94295   0.16308
H          H       0.01390   0.21328   0.49077
H          H       0.98610   0.78672   0.49077
H          H       0.78672   0.01390   0.49077
H          H       0.21328   0.98610   0.49077
H          H       0.45333   0.31828   0.18582
H          H       0.54667   0.68172   0.18582
H          H       0.68172   0.45333   0.18582
H          H       0.31828   0.54667   0.18582
C          C       0.44955   0.37139   0.42937
C          C       0.55045   0.62861   0.42937
C          C       0.62861   0.44955   0.42937
C          C       0.37139   0.55045   0.42937
C          C       0.43276   0.25132   0.45675
C          C       0.56724   0.74868   0.45675
C          C       0.74868   0.43276   0.45675
C          C       0.25132   0.56724   0.45675
H          H       0.02931   0.24121   0.18535
H          H       0.97069   0.75879   0.18535
H          H       0.75879   0.02931   0.18535
H          H       0.24121   0.97069   0.18535
H          H       0.03209   0.26246   0.31992
H          H       0.96791   0.73754   0.31992
H          H       0.73754   0.03209   0.31992
H          H       0.26246   0.96791   0.31992
H          H       0.50943   0.32954   0.46996
H          H       0.49057   0.67046   0.46996
H          H       0.67046   0.50943   0.46996
H          H       0.32954   0.49057   0.46996
H          H       0.49490   0.28620   0.01708
H          H       0.50510   0.71380   0.01708
H          H       0.71380   0.49490   0.01708
H          H       0.28620   0.50510   0.01708
H          H       0.10948   0.25328   0.45327
H          H       0.89052   0.74672   0.45327
H          H       0.74672   0.10948   0.45327
H          H       0.25328   0.89052   0.45327
H          H       0.08464   0.22072   0.03685
H          H       0.91536   0.77928   0.03685
H          H       0.77928   0.08464   0.03685
H          H       0.22072   0.91536   0.03685
H          H       0.06175   0.25868   0.47602
H          H       0.93825   0.74132   0.47602
H          H       0.74132   0.06175   0.47602
H          H       0.25868   0.93825   0.47602
H          H       0.99061   0.13781   0.40604
H          H       0.00939   0.86219   0.40604
H          H       0.86219   0.99061   0.40604
H          H       0.13781   0.00939   0.40604
H          H       0.96908   0.17580   0.34403
H          H       0.03092   0.82420   0.34403
H          H       0.82420   0.96908   0.34403
H          H       0.17580   0.03092   0.34403
H          H       0.96830   0.16957   0.49612
H          H       0.03170   0.83043   0.49612
H          H       0.83043   0.96830   0.49612
H          H       0.16957   0.03170   0.49612
H          H       0.43259   0.22143   0.44978
H          H       0.56741   0.77857   0.44978
H          H       0.77857   0.43259   0.44978
H          H       0.22143   0.56741   0.44978
H          H       0.40433   0.26108   0.45422
H          H       0.59567   0.73892   0.45422
H          H       0.73892   0.40433   0.45422
H          H       0.26108   0.59567   0.45422
H          H       0.44464   0.25892   0.04012
H          H       0.55536   0.74108   0.04012
H          H       0.74108   0.44464   0.04012
H          H       0.25892   0.55536   0.04012
H          H       0.44522   0.38577   0.34818
H          H       0.55478   0.61423   0.34818
H          H       0.61423   0.44522   0.34818
H          H       0.38577   0.55478   0.34818
H          H       0.47712   0.37738   0.46041
H          H       0.52288   0.62262   0.46041
H          H       0.62262   0.47712   0.46041
H          H       0.37738   0.52288   0.46041
H          H       0.43018   0.38281   0.49132
H          H       0.56982   0.61719   0.49132
H          H       0.61719   0.43018   0.49132
H          H       0.38281   0.56982   0.49132
H          H       0.06437   0.13449   0.34838
H          H       0.93563   0.86551   0.34838
H          H       0.86551   0.06437   0.34838
H          H       0.13449   0.93563   0.34838
H          H       0.06787   0.12485   0.19673
H          H       0.93213   0.87515   0.19673
H          H       0.87515   0.06787   0.19673
H          H       0.12485   0.93213   0.19673
H          H       0.02555   0.11835   0.26626
H          H       0.97445   0.88165   0.26626
H          H       0.88165   0.02555   0.26626
H          H       0.11835   0.97445   0.26626
H          H       0.52119   0.34874   0.15820
H          H       0.47881   0.65126   0.15820
H          H       0.65126   0.52119   0.15820
H          H       0.34874   0.47881   0.15820
H          H       0.51247   0.36446   0.30079
H          H       0.48753   0.63554   0.30079
H          H       0.63554   0.51247   0.30079
H          H       0.36446   0.48753   0.30079
H          H       0.48101   0.37355   0.18885
H          H       0.51899   0.62645   0.18885
H          H       0.62645   0.48101   0.18885
H          H       0.37355   0.51899   0.18885
N          N       0.20342   0.96138   0.82689
N          N       0.79658   0.03862   0.82689
N          N       0.03862   0.20342   0.82689
N          N       0.96138   0.79658   0.82689
N          N       0.30481   0.53135   0.86486
N          N       0.69519   0.46865   0.86486
N          N       0.46865   0.30481   0.86486
N          N       0.53135   0.69519   0.86486
C          C       0.53615   0.07259   0.71572
C          C       0.46385   0.92741   0.71572
C          C       0.92741   0.53615   0.71572
C          C       0.07259   0.46385   0.71572
N          N       0.16718   0.31336   0.63669
N          N       0.83282   0.68664   0.63669
N          N       0.68664   0.16718   0.63669
N          N       0.31336   0.83282   0.63669
C          C       0.20750   0.31604   0.61726
C          C       0.79250   0.68396   0.61726
C          C       0.68396   0.20750   0.61726
C          C       0.31604   0.79250   0.61726
C          C       0.21823   0.24658   0.66471
C          C       0.78177   0.75342   0.66471
C          C       0.75342   0.21823   0.66471
C          C       0.24658   0.78177   0.66471
C          C       0.24263   0.21793   0.67691
C          C       0.75737   0.78207   0.67691
C          C       0.78207   0.24263   0.67691
C          C       0.21793   0.75737   0.67691
C          C       0.28132   0.22249   0.67580
C          C       0.71868   0.77751   0.67580
C          C       0.77751   0.28132   0.67580
C          C       0.22249   0.71868   0.67580
O          O       0.18010   0.24199   0.67227
O          O       0.81990   0.75801   0.67227
O          O       0.75801   0.18010   0.67227
O          O       0.24199   0.81990   0.67227
C          C       0.16430   0.21318   0.60337
C          C       0.83570   0.78682   0.60337
C          C       0.78682   0.16430   0.60337
C          C       0.21318   0.83570   0.60337
N          N       0.34236   0.19233   0.71754
N          N       0.65764   0.80767   0.71754
N          N       0.80767   0.34236   0.71754
N          N       0.19233   0.65764   0.71754
C          C       0.28849   0.15665   0.72271
C          C       0.71151   0.84335   0.72271
C          C       0.84335   0.28849   0.72271
C          C       0.15665   0.71151   0.72271
C          C       0.36564   0.16138   0.73070
C          C       0.63436   0.83862   0.73070
C          C       0.83862   0.36564   0.73070
C          C       0.16138   0.63436   0.73070
C          C       0.36688   0.14242   0.83376
C          C       0.63312   0.85758   0.83376
C          C       0.85758   0.36688   0.83376
C          C       0.14242   0.63312   0.83376
C          C       0.38955   0.11191   0.84386
C          C       0.61045   0.88809   0.84386
C          C       0.88809   0.38955   0.84386
C          C       0.11191   0.61045   0.84386
C          C       0.41142   0.10109   0.75021
C          C       0.58858   0.89891   0.75021
C          C       0.89891   0.41142   0.75021
C          C       0.10109   0.58858   0.75021
C          C       0.41886   0.97595   0.75071
C          C       0.58114   0.02405   0.75071
C          C       0.02405   0.41886   0.75071
C          C       0.97595   0.58114   0.75071
N          N       0.44319   0.00365   0.74108
N          N       0.55681   0.99635   0.74108
N          N       0.99635   0.44319   0.74108
N          N       0.00365   0.55681   0.74108
C          C       0.43764   0.07011   0.75874
C          C       0.56236   0.92989   0.75874
C          C       0.92989   0.43764   0.75874
C          C       0.07011   0.56236   0.75874
C          C       0.27561   0.12842   0.75425
C          C       0.72439   0.87158   0.75425
C          C       0.87158   0.27561   0.75425
C          C       0.12842   0.72439   0.75425
C          C       0.26024   0.09339   0.77441
C          C       0.73976   0.90661   0.77441
C          C       0.90661   0.26024   0.77441
C          C       0.09339   0.73976   0.77441
C          C       0.23777   0.07906   0.68812
C          C       0.76223   0.92094   0.68812
C          C       0.92094   0.23777   0.68812
C          C       0.07906   0.76223   0.68812
C          C       0.22970   0.04182   0.69108
C          C       0.77030   0.95818   0.69108
C          C       0.95818   0.22970   0.69108
C          C       0.04182   0.77030   0.69108
C          C       0.24024   0.01983   0.78399
C          C       0.75976   0.98017   0.78399
C          C       0.98017   0.24024   0.78399
C          C       0.01983   0.75976   0.78399
C          C       0.26081   0.03537   0.87303
C          C       0.73919   0.96463   0.87303
C          C       0.96463   0.26081   0.87303
C          C       0.03537   0.73919   0.87303
C          C       0.26990   0.07243   0.86890
C          C       0.73010   0.92757   0.86890
C          C       0.92757   0.26990   0.86890
C          C       0.07243   0.73010   0.86890
C          C       0.14155   0.34243   0.66404
C          C       0.85845   0.65757   0.66404
C          C       0.65757   0.14155   0.66404
C          C       0.34243   0.85845   0.66404
C          C       0.07999   0.36673   0.63524
C          C       0.92001   0.63327   0.63524
C          C       0.63327   0.07999   0.63524
C          C       0.36673   0.92001   0.63524
C          C       0.10615   0.33971   0.61828
C          C       0.89385   0.66029   0.61828
C          C       0.66029   0.10615   0.61828
C          C       0.33971   0.89385   0.61828
C          C       0.97509   0.38880   0.79515
C          C       0.02491   0.61120   0.79515
C          C       0.61120   0.97509   0.79515
C          C       0.38880   0.02491   0.79515
C          C       0.01187   0.38601   0.78876
C          C       0.98813   0.61399   0.78876
C          C       0.61399   0.01187   0.78876
C          C       0.38601   0.98813   0.78876
C          C       0.96589   0.42399   0.76616
C          C       0.03411   0.57601   0.76616
C          C       0.57601   0.96589   0.76616
C          C       0.42399   0.03411   0.76616
C          C       0.06053   0.42708   0.72620
C          C       0.93947   0.57292   0.72620
C          C       0.57292   0.06053   0.72620
C          C       0.42708   0.93947   0.72620
H          H       0.15625   0.29373   0.58236
H          H       0.84375   0.70627   0.58236
H          H       0.70627   0.15625   0.58236
H          H       0.29373   0.84375   0.58236
H          H       0.23207   0.19106   0.69139
H          H       0.76793   0.80894   0.69139
H          H       0.80894   0.23207   0.69139
H          H       0.19106   0.76793   0.69139
H          H       0.30909   0.18284   0.57556
H          H       0.69091   0.81716   0.57556
H          H       0.81716   0.30909   0.57556
H          H       0.18284   0.69091   0.57556
H          H       0.17958   0.18626   0.60371
H          H       0.82042   0.81374   0.60371
H          H       0.81374   0.17958   0.60371
H          H       0.18626   0.82042   0.60371
H          H       0.16070   0.22268   0.51229
H          H       0.83930   0.77732   0.51229
H          H       0.77732   0.16070   0.51229
H          H       0.22268   0.83930   0.51229
H          H       0.13642   0.20737   0.63859
H          H       0.86358   0.79263   0.63859
H          H       0.79263   0.13642   0.63859
H          H       0.20737   0.86358   0.63859
H          H       0.35798   0.21340   0.68640
H          H       0.64202   0.78660   0.68640
H          H       0.78660   0.35798   0.68640
H          H       0.21340   0.64202   0.68640
H          H       0.34860   0.14960   0.90281
H          H       0.65140   0.85040   0.90281
H          H       0.85040   0.34860   0.90281
H          H       0.14960   0.65140   0.90281
H          H       0.38867   0.09561   0.92197
H          H       0.61133   0.90439   0.92197
H          H       0.90439   0.38867   0.92197
H          H       0.09561   0.61133   0.92197
H          H       0.50494   0.03086   0.80805
H          H       0.49506   0.96914   0.80805
H          H       0.96914   0.50494   0.80805
H          H       0.03086   0.49506   0.80805
H          H       0.22942   0.09478   0.61395
H          H       0.77058   0.90522   0.61395
H          H       0.90522   0.22942   0.61395
H          H       0.09478   0.77058   0.61395
H          H       0.21531   0.03040   0.61932
H          H       0.78469   0.96960   0.61932
H          H       0.96960   0.21531   0.61932
H          H       0.03040   0.78469   0.61932
C          C       0.23730   0.97871   0.77779
C          C       0.76270   0.02129   0.77779
C          C       0.02129   0.23730   0.77779
C          C       0.97871   0.76270   0.77779
H          H       0.27231   0.01911   0.94222
H          H       0.72769   0.98089   0.94222
H          H       0.98089   0.27231   0.94222
H          H       0.01911   0.72769   0.94222
H          H       0.28751   0.08373   0.93494
H          H       0.71249   0.91627   0.93494
H          H       0.91627   0.28751   0.93494
H          H       0.08373   0.71249   0.93494
H          H       0.05426   0.36376   0.59310
H          H       0.94574   0.63624   0.59310
H          H       0.63624   0.05426   0.59310
H          H       0.36376   0.94574   0.59310
H          H       0.09856   0.31567   0.57110
H          H       0.90144   0.68433   0.57110
H          H       0.68433   0.09856   0.57110
H          H       0.31567   0.90144   0.57110
C          C       0.10829   0.47427   0.69110
C          C       0.89171   0.52573   0.69110
C          C       0.52573   0.10829   0.69110
C          C       0.47427   0.89171   0.69110
C          C       0.11198   0.51071   0.71513
C          C       0.88802   0.48929   0.71513
C          C       0.48929   0.11198   0.71513
C          C       0.51071   0.88802   0.71513
C          C       0.07802   0.52469   0.74185
C          C       0.92198   0.47531   0.74185
C          C       0.47531   0.07802   0.74185
C          C       0.52469   0.92198   0.74185
N          N       0.05273   0.49539   0.75089
N          N       0.94727   0.50461   0.75089
N          N       0.50461   0.05273   0.75089
N          N       0.49539   0.94727   0.75089
C          C       0.08660   0.39651   0.71018
C          C       0.91340   0.60349   0.71018
C          C       0.60349   0.08660   0.71018
C          C       0.39651   0.91340   0.71018
C          C       0.23099   0.28207   0.64100
C          C       0.76901   0.71793   0.64100
C          C       0.71793   0.23099   0.64100
C          C       0.28207   0.76901   0.64100
C          C       0.22421   0.34668   0.67947
C          C       0.77579   0.65332   0.67947
C          C       0.65332   0.22421   0.67947
C          C       0.34668   0.77579   0.67947
C          C       0.23903   0.37123   0.73202
C          C       0.76097   0.62877   0.73202
C          C       0.62877   0.23903   0.73202
C          C       0.37123   0.76097   0.73202
C          C       0.25614   0.40277   0.78297
C          C       0.74386   0.59723   0.78297
C          C       0.59723   0.25614   0.78297
C          C       0.40277   0.74386   0.78297
C          C       0.29379   0.40683   0.78712
C          C       0.70621   0.59317   0.78712
C          C       0.59317   0.29379   0.78712
C          C       0.40683   0.70621   0.78712
C          C       0.30911   0.43582   0.84513
C          C       0.69089   0.56418   0.84513
C          C       0.56418   0.30911   0.84513
C          C       0.43582   0.69089   0.84513
C          C       0.28628   0.46428   0.88257
C          C       0.71372   0.53572   0.88257
C          C       0.53572   0.28628   0.88257
C          C       0.46428   0.71372   0.88257
C          C       0.24893   0.45967   0.88376
C          C       0.75107   0.54033   0.88376
C          C       0.54033   0.24893   0.88376
C          C       0.45967   0.75107   0.88376
C          C       0.23406   0.42918   0.83363
C          C       0.76594   0.57082   0.83363
C          C       0.57082   0.23406   0.83363
C          C       0.42918   0.76594   0.83363
C          C       0.29486   0.25895   0.66042
C          C       0.70514   0.74105   0.66042
C          C       0.74105   0.29486   0.66042
C          C       0.25895   0.70514   0.66042
C          C       0.26950   0.28660   0.63372
C          C       0.73050   0.71340   0.63372
C          C       0.71340   0.26950   0.63372
C          C       0.28660   0.73050   0.63372
C          C       0.30607   0.18838   0.66956
C          C       0.69393   0.81162   0.66956
C          C       0.81162   0.30607   0.66956
C          C       0.18838   0.69393   0.66956
O          O       0.33233   0.26668   0.67393
O          O       0.66767   0.73332   0.67393
O          O       0.73332   0.33233   0.67393
O          O       0.26668   0.66767   0.67393
C          C       0.34689   0.30158   0.64556
C          C       0.65311   0.69842   0.64556
C          C       0.69842   0.34689   0.64556
C          C       0.30158   0.65311   0.64556
C          C       0.40851   0.12037   0.64569
C          C       0.59149   0.87963   0.64569
C          C       0.87963   0.40851   0.64569
C          C       0.12037   0.59149   0.64569
C          C       0.38540   0.14919   0.63689
C          C       0.61460   0.85081   0.63689
C          C       0.85081   0.38540   0.63689
C          C       0.14919   0.61460   0.63689
C          C       0.14795   0.37249   0.73799
C          C       0.85205   0.62751   0.73799
C          C       0.62751   0.14795   0.73799
C          C       0.37249   0.85205   0.73799
C          C       0.12082   0.39755   0.76418
C          C       0.87918   0.60245   0.76418
C          C       0.60245   0.12082   0.76418
C          C       0.39755   0.87918   0.76418
H          H       0.21153   0.32271   0.52531
H          H       0.78847   0.67729   0.52531
H          H       0.67729   0.21153   0.52531
H          H       0.32271   0.78847   0.52531
H          H       0.31114   0.38753   0.74640
H          H       0.68886   0.61247   0.74640
H          H       0.61247   0.31114   0.74640
H          H       0.38753   0.68886   0.74640
H          H       0.33797   0.43822   0.85098
H          H       0.66203   0.56178   0.85098
H          H       0.56178   0.33797   0.85098
H          H       0.43822   0.66203   0.85098
C          C       0.30239   0.49803   0.94047
C          C       0.69761   0.50197   0.94047
C          C       0.50197   0.30239   0.94047
C          C       0.49803   0.69761   0.94047
H          H       0.23147   0.47905   0.92475
H          H       0.76853   0.52095   0.92475
H          H       0.52095   0.23147   0.92475
H          H       0.47905   0.76853   0.92475
H          H       0.20516   0.42602   0.83513
H          H       0.79484   0.57398   0.83513
H          H       0.57398   0.20516   0.83513
H          H       0.42602   0.79484   0.83513
H          H       0.28019   0.31334   0.61200
H          H       0.71981   0.68666   0.61200
H          H       0.68666   0.28019   0.61200
H          H       0.31334   0.71981   0.61200
H          H       0.34124   0.30656   0.55206
H          H       0.65876   0.69344   0.55206
H          H       0.69344   0.34124   0.55206
H          H       0.30656   0.65876   0.55206
H          H       0.37716   0.30115   0.65948
H          H       0.62284   0.69885   0.65948
H          H       0.69885   0.37716   0.65948
H          H       0.30115   0.62284   0.65948
H          H       0.33495   0.32189   0.70567
H          H       0.66505   0.67811   0.70567
H          H       0.67811   0.33495   0.70567
H          H       0.32189   0.66505   0.70567
H          H       0.42335   0.11111   0.57045
H          H       0.57665   0.88889   0.57045
H          H       0.88889   0.42335   0.57045
H          H       0.11111   0.57665   0.57045
H          H       0.17394   0.37792   0.77590
H          H       0.82606   0.62208   0.77590
H          H       0.62208   0.17394   0.77590
H          H       0.37792   0.82606   0.77590
H          H       0.12700   0.41937   0.82830
H          H       0.87300   0.58063   0.82830
H          H       0.58063   0.12700   0.82830
H          H       0.41937   0.87300   0.82830
H          H       0.63380   0.95839   0.82067
H          H       0.36620   0.04161   0.82067
H          H       0.04161   0.63380   0.82067
H          H       0.95839   0.36620   0.82067
H          H       0.63719   0.02748   0.81904
H          H       0.36281   0.97252   0.81904
H          H       0.97252   0.63719   0.81904
H          H       0.02748   0.36281   0.81904
H          H       0.54236   0.13090   0.66434
H          H       0.45764   0.86910   0.66434
H          H       0.86910   0.54236   0.66434
H          H       0.13090   0.45764   0.66434
H          H       0.47598   0.13823   0.71337
H          H       0.52402   0.86177   0.71337
H          H       0.86177   0.47598   0.71337
H          H       0.13823   0.52402   0.71337
H          H       0.61723   0.83754   0.55620
H          H       0.38277   0.16246   0.55620
H          H       0.16246   0.61723   0.55620
H          H       0.83754   0.38277   0.55620
C          C       0.92274   0.78683   0.85160
C          C       0.07726   0.21317   0.85160
C          C       0.21317   0.92274   0.85160
C          C       0.78683   0.07726   0.85160
C          C       0.96127   0.82450   0.73095
C          C       0.03873   0.17550   0.73095
C          C       0.17550   0.96127   0.73095
C          C       0.82450   0.03873   0.73095
C          C       0.97950   0.81047   0.93357
C          C       0.02050   0.18953   0.93357
C          C       0.18953   0.97950   0.93357
C          C       0.81047   0.02050   0.93357
C          C       0.52182   0.68400   0.74317
C          C       0.47818   0.31600   0.74317
C          C       0.31600   0.52182   0.74317
C          C       0.68400   0.47818   0.74317
C          C       0.55975   0.66946   0.91675
C          C       0.44025   0.33054   0.91675
C          C       0.33054   0.55975   0.91675
C          C       0.66946   0.44025   0.91675
C          C       0.54823   0.73220   0.84993
C          C       0.45177   0.26780   0.84993
C          C       0.26780   0.54823   0.84993
C          C       0.73220   0.45177   0.84993
H          H       0.09445   0.18871   0.86799
H          H       0.90555   0.81129   0.86799
H          H       0.81129   0.09445   0.86799
H          H       0.18871   0.90555   0.86799
C          C       0.08317   0.23808   0.95848
C          C       0.91683   0.76192   0.95848
C          C       0.76192   0.08317   0.95848
C          C       0.23808   0.91683   0.95848
H          H       0.03972   0.17250   0.98718
H          H       0.96028   0.82750   0.98718
H          H       0.82750   0.03972   0.98718
H          H       0.17250   0.96028   0.98718
C          C       0.98529   0.16688   0.91834
C          C       0.01471   0.83312   0.91834
C          C       0.83312   0.98529   0.91834
C          C       0.16688   0.01471   0.91834
H          H       0.01124   0.17417   0.69237
H          H       0.98876   0.82583   0.69237
H          H       0.82583   0.01124   0.69237
H          H       0.17417   0.98876   0.69237
C          C       0.05024   0.13628   0.76486
C          C       0.94976   0.86372   0.76486
C          C       0.86372   0.05024   0.76486
C          C       0.13628   0.94976   0.76486
H          H       0.43268   0.32014   0.50375
H          H       0.56732   0.67986   0.50375
H          H       0.67986   0.43268   0.50375
H          H       0.32014   0.56732   0.50375
H          H       0.41457   0.32847   0.86528
H          H       0.58543   0.67153   0.86528
H          H       0.67153   0.41457   0.86528
H          H       0.32847   0.58543   0.86528
H          H       0.47218   0.24733   0.82032
H          H       0.52782   0.75267   0.82032
H          H       0.75267   0.47218   0.82032
H          H       0.24733   0.52782   0.82032
H          H       0.43112   0.26755   0.77621
H          H       0.56888   0.73245   0.77621
H          H       0.73245   0.43112   0.77621
H          H       0.26755   0.56888   0.77621
H          H       0.49515   0.29456   0.70017
H          H       0.50485   0.70544   0.70017
H          H       0.70544   0.49515   0.70017
H          H       0.29456   0.50485   0.70017
C          C       0.49960   0.35211   0.72482
C          C       0.50040   0.64789   0.72482
C          C       0.64789   0.49960   0.72482
C          C       0.35211   0.50040   0.72482
H          H       0.09048   0.22636   0.77584
H          H       0.90952   0.77364   0.77584
H          H       0.77364   0.09048   0.77584
H          H       0.22636   0.90952   0.77584
H          H       0.05705   0.18447   0.66308
H          H       0.94295   0.81553   0.66308
H          H       0.81553   0.05705   0.66308
H          H       0.18447   0.94295   0.66308
H          H       0.01390   0.21328   0.99077
H          H       0.98610   0.78672   0.99077
H          H       0.78672   0.01390   0.99077
H          H       0.21328   0.98610   0.99077
H          H       0.45333   0.31828   0.68582
H          H       0.54667   0.68172   0.68582
H          H       0.68172   0.45333   0.68582
H          H       0.31828   0.54667   0.68582
C          C       0.44955   0.37139   0.92937
C          C       0.55045   0.62861   0.92937
C          C       0.62861   0.44955   0.92937
C          C       0.37139   0.55045   0.92937
C          C       0.43276   0.25132   0.95674
C          C       0.56724   0.74868   0.95674
C          C       0.74868   0.43276   0.95674
C          C       0.25132   0.56724   0.95674
H          H       0.02931   0.24121   0.68535
H          H       0.97069   0.75879   0.68535
H          H       0.75879   0.02931   0.68535
H          H       0.24121   0.97069   0.68535
H          H       0.03209   0.26246   0.81992
H          H       0.96791   0.73754   0.81992
H          H       0.73754   0.03209   0.81992
H          H       0.26246   0.96791   0.81992
H          H       0.50943   0.32954   0.96996
H          H       0.49057   0.67046   0.96996
H          H       0.67046   0.50943   0.96996
H          H       0.32954   0.49057   0.96996
H          H       0.49490   0.28620   0.51708
H          H       0.50510   0.71380   0.51708
H          H       0.71380   0.49490   0.51708
H          H       0.28620   0.50510   0.51708
H          H       0.10948   0.25328   0.95327
H          H       0.89052   0.74672   0.95327
H          H       0.74672   0.10948   0.95327
H          H       0.25328   0.89052   0.95327
H          H       0.08464   0.22072   0.53685
H          H       0.91536   0.77928   0.53685
H          H       0.77928   0.08464   0.53685
H          H       0.22072   0.91536   0.53685
H          H       0.06175   0.25868   0.97602
H          H       0.93825   0.74132   0.97602
H          H       0.74132   0.06175   0.97602
H          H       0.25868   0.93825   0.97602
H          H       0.99061   0.13781   0.90604
H          H       0.00939   0.86219   0.90604
H          H       0.86219   0.99061   0.90604
H          H       0.13781   0.00939   0.90604
H          H       0.96908   0.17580   0.84403
H          H       0.03092   0.82420   0.84403
H          H       0.82420   0.96908   0.84403
H          H       0.17580   0.03092   0.84403
H          H       0.96830   0.16957   0.99612
H          H       0.03170   0.83043   0.99612
H          H       0.83043   0.96830   0.99612
H          H       0.16957   0.03170   0.99612
H          H       0.43259   0.22143   0.94978
H          H       0.56741   0.77857   0.94978
H          H       0.77857   0.43259   0.94978
H          H       0.22143   0.56741   0.94978
H          H       0.40433   0.26108   0.95422
H          H       0.59567   0.73892   0.95422
H          H       0.73892   0.40433   0.95422
H          H       0.26108   0.59567   0.95422
H          H       0.44464   0.25892   0.54012
H          H       0.55536   0.74108   0.54012
H          H       0.74108   0.44464   0.54012
H          H       0.25892   0.55536   0.54012
H          H       0.44522   0.38577   0.84818
H          H       0.55478   0.61423   0.84818
H          H       0.61423   0.44522   0.84818
H          H       0.38577   0.55478   0.84818
H          H       0.47712   0.37738   0.96041
H          H       0.52288   0.62262   0.96041
H          H       0.62262   0.47712   0.96041
H          H       0.37738   0.52288   0.96041
H          H       0.43018   0.38281   0.99131
H          H       0.56982   0.61719   0.99131
H          H       0.61719   0.43018   0.99131
H          H       0.38281   0.56982   0.99131
H          H       0.06437   0.13449   0.84838
H          H       0.93563   0.86551   0.84838
H          H       0.86551   0.06437   0.84838
H          H       0.13449   0.93563   0.84838
H          H       0.06787   0.12485   0.69673
H          H       0.93213   0.87515   0.69673
H          H       0.87515   0.06787   0.69673
H          H       0.12485   0.93213   0.69673
H          H       0.02555   0.11835   0.76626
H          H       0.97445   0.88165   0.76626
H          H       0.88165   0.02555   0.76626
H          H       0.11835   0.97445   0.76626
H          H       0.52119   0.34874   0.65819
H          H       0.47881   0.65126   0.65819
H          H       0.65126   0.52119   0.65819
H          H       0.34874   0.47881   0.65819
H          H       0.51247   0.36446   0.80078
H          H       0.48753   0.63554   0.80078
H          H       0.63554   0.51247   0.80078
H          H       0.36446   0.48753   0.80078
H          H       0.48101   0.37355   0.68885
H          H       0.51899   0.62645   0.68885
H          H       0.62645   0.48101   0.68885
H          H       0.37355   0.51899   0.68885
