data_TBI-COF
_audit_creation_date              0000-00-00
_audit_creation_method            'LanYouShi'
_symmetry_space_group_name_H-M    'P1'
_cell_length_a                    26.3673000
_cell_length_b                    26.3673000
_cell_length_c                    3.5249000
_cell_angle_alpha                 90.0000000
_cell_angle_beta                  90.0000000
_cell_angle_gamma                 120.0000000
loop_
_atom_site_label
_atom_site_type_symbol
_atom_site_fract_x
_atom_site_fract_y
_atom_site_fract_z
_atom_site_U_iso_or_equiv
_atom_site_adp_type
_atom_site_occupancy
        C1          C  0.0209270  0.5577480  0.5000002    0.00000       Uiso       1.00
        C2          C  0.4422507  0.4631780  0.5000002    0.00000       Uiso       1.00
        C3          C  0.5368207  0.9790716  0.5000002    0.00000       Uiso       1.00
        N1          N  0.9807332  0.4999189  0.5000002    0.00000       Uiso       1.00
        N2          N  0.5000798  0.4808141  0.5000002    0.00000       Uiso       1.00
        N3          N  0.5191846  0.0192654  0.5000002    0.00000       Uiso       1.00
        H1          H  0.0071732  0.5877584  0.5000002    0.00000       Uiso       1.00
        H2          H  0.4122403  0.4194138  0.5000002    0.00000       Uiso       1.00
        H3          H  0.5805849  0.9928256  0.5000002    0.00000       Uiso       1.00
        C4          C  0.1221237  0.6386396  0.5000002    0.00000       Uiso       1.00
        C5          C  0.3613591  0.4834831  0.5000002    0.00000       Uiso       1.00
        C6          C  0.5165156  0.8778750  0.5000002    0.00000       Uiso       1.00
        C7          C  0.1828361  0.6597310  0.5000002    0.00000       Uiso       1.00
        C8          C  0.3402676  0.5231040  0.5000002    0.00000       Uiso       1.00
        C9          C  0.4768947  0.8171626  0.5000002    0.00000       Uiso       1.00
       C10          C  0.8923075  0.4102203  0.5000002    0.00000       Uiso       1.00
       C11          C  0.5897784  0.4820869  0.5000002    0.00000       Uiso       1.00
       C12          C  0.5179118  0.1076912  0.5000002    0.00000       Uiso       1.00
       C13          C  0.8307091  0.3769222  0.5000002    0.00000       Uiso       1.00
       C14          C  0.6230764  0.4537865  0.5000002    0.00000       Uiso       1.00
       C15          C  0.5462121  0.1692896  0.5000002    0.00000       Uiso       1.00
        H4          H  0.1077560  0.6682583  0.5000002    0.00000       Uiso       1.00
        H5          H  0.3317403  0.4394966  0.5000002    0.00000       Uiso       1.00
        H6          H  0.5605021  0.8922427  0.5000002    0.00000       Uiso       1.00
        H7          H  0.2079489  0.7040735  0.5000002    0.00000       Uiso       1.00
        H8          H  0.2959252  0.5038744  0.5000002    0.00000       Uiso       1.00
        H9          H  0.4961242  0.7920498  0.5000002    0.00000       Uiso       1.00
       H10          H  0.9162009  0.3893270  0.5000002    0.00000       Uiso       1.00
       H11          H  0.6106717  0.5268735  0.5000002    0.00000       Uiso       1.00
       H12          H  0.4731251  0.0837978  0.5000002    0.00000       Uiso       1.00
       H13          H  0.8142182  0.3329058  0.5000002    0.00000       Uiso       1.00
       H14          H  0.6670929  0.4813120  0.5000002    0.00000       Uiso       1.00
       H15          H  0.5186867  0.1857805  0.5000002    0.00000       Uiso       1.00
       C16          C  0.4354724  0.8956331  0.5000002    0.00000       Uiso       1.00
       C17          C  0.1043656  0.5398383  0.5000002    0.00000       Uiso       1.00
       C18          C  0.4601603  0.5645263  0.5000002    0.00000       Uiso       1.00
       C19          C  0.3962822  0.8348280  0.5000002    0.00000       Uiso       1.00
       C20          C  0.1651707  0.5614532  0.5000002    0.00000       Uiso       1.00
       C21          C  0.4385454  0.6037164  0.5000002    0.00000       Uiso       1.00
       C22          C  0.6116149  0.1128733  0.5000002    0.00000       Uiso       1.00
       C23          C  0.8871254  0.4987414  0.5000002    0.00000       Uiso       1.00
       C24          C  0.5012573  0.3883837  0.5000002    0.00000       Uiso       1.00
       C25          C  0.6395131  0.1744633  0.5000002    0.00000       Uiso       1.00
       C26          C  0.8255354  0.4650495  0.5000002    0.00000       Uiso       1.00
       C27          C  0.5349492  0.3604856  0.5000002    0.00000       Uiso       1.00
       H16          H  0.4188805  0.9234101  0.5000002    0.00000       Uiso       1.00
       H17          H  0.0765886  0.4954694  0.5000002    0.00000       Uiso       1.00
       H18          H  0.5045293  0.5811182  0.5000002    0.00000       Uiso       1.00
       H19          H  0.3533390  0.8233646  0.5000002    0.00000       Uiso       1.00
       H20          H  0.1766340  0.5299733  0.5000002    0.00000       Uiso       1.00
       H21          H  0.4700254  0.6466597  0.5000002    0.00000       Uiso       1.00
       H22          H  0.6367734  0.0934746  0.5000002    0.00000       Uiso       1.00
       H23          H  0.9065241  0.5432985  0.5000002    0.00000       Uiso       1.00
       H24          H  0.4567002  0.3632253  0.5000002    0.00000       Uiso       1.00
       H25          H  0.6839483  0.1950101  0.5000002    0.00000       Uiso       1.00
       H26          H  0.8049886  0.4889379  0.5000002    0.00000       Uiso       1.00
       H27          H  0.5110608  0.3160503  0.5000002    0.00000       Uiso       1.00
       C28          C  0.3741326  0.7296174  0.5000002    0.00000       Uiso       1.00
       C29          C  0.2703812  0.6445141  0.5000002    0.00000       Uiso       1.00
       C30          C  0.3554846  0.6258661  0.5000002    0.00000       Uiso       1.00
       C31          C  0.4965174  0.9184092  0.5000002    0.00000       Uiso       1.00
       C32          C  0.0815894  0.5781071  0.5000002    0.00000       Uiso       1.00
       C33          C  0.4218915  0.5034813  0.5000002    0.00000       Uiso       1.00
       C34          C  0.4146855  0.7922010  0.5000002    0.00000       Uiso       1.00
       C35          C  0.2077977  0.6224836  0.5000002    0.00000       Uiso       1.00
       C36          C  0.3775151  0.5853131  0.5000002    0.00000       Uiso       1.00
       C37          C  0.3926267  0.6875310  0.5000002    0.00000       Uiso       1.00
       C38          C  0.3124677  0.7050947  0.5000002    0.00000       Uiso       1.00
       C39          C  0.2949040  0.6073720  0.5000002    0.00000       Uiso       1.00
       C40          C  0.6375158  0.2695525  0.5000002    0.00000       Uiso       1.00
       C41          C  0.7304462  0.3679630  0.5000002    0.00000       Uiso       1.00
       C42          C  0.6320357  0.3624829  0.5000002    0.00000       Uiso       1.00
       C43          C  0.5501469  0.0785556  0.5000002    0.00000       Uiso       1.00
       C44          C  0.9214430  0.4715910  0.5000002    0.00000       Uiso       1.00
       C45          C  0.5284077  0.4498518  0.5000002    0.00000       Uiso       1.00
       C46          C  0.6085199  0.2061269  0.5000002    0.00000       Uiso       1.00
       C47          C  0.7938718  0.4023926  0.5000002    0.00000       Uiso       1.00
       C48          C  0.5976061  0.3914788  0.5000002    0.00000       Uiso       1.00
       C49          C  0.6065823  0.3007099  0.5000002    0.00000       Uiso       1.00
       C50          C  0.6992888  0.3058721  0.5000002    0.00000       Uiso       1.00
       C51          C  0.6941265  0.3934164  0.5000002    0.00000       Uiso       1.00
       H28          H  0.4358155  0.7027248  0.5000002    0.00000       Uiso       1.00
       H29          H  0.5628176  0.2769444  0.5000002    0.00000       Uiso       1.00
       H30          H  0.2972739  0.7330897  0.5000002    0.00000       Uiso       1.00
       H31          H  0.7230543  0.2858729  0.5000002    0.00000       Uiso       1.00
       H32          H  0.2669090  0.5641832  0.5000002    0.00000       Uiso       1.00
       H33          H  0.7141258  0.4371811  0.5000002    0.00000       Uiso       1.00
