data_crystal

_cell_length_a    9.08650
_cell_length_b    87.87700
_cell_length_c    51.03740
_cell_angle_alpha 90.00000
_cell_angle_beta  90.00000
_cell_angle_gamma 90.00000

_space_group_name_Hall 'P 1'
_space_group_name_H-M_alt 'P 1'

loop_
_symmetry_equiv_pos_as_xyz
 'x,y,z'

loop_
_atom_site_label
_atom_site_type_symbol
_atom_site_fract_x
_atom_site_fract_y
_atom_site_fract_z
C          C       0.69575   0.63855   0.18037
C          C       0.30425   0.36145   0.43037
C          C       0.30425   0.63855   0.06963
C          C       0.69575   0.36145   0.31963
C          C       0.30425   0.36145   0.31963
C          C       0.69575   0.63855   0.06963
C          C       0.69575   0.36145   0.43037
C          C       0.30425   0.63855   0.18037
C          C       0.19575   0.13855   0.18037
C          C       0.80425   0.86145   0.43037
C          C       0.80425   0.13855   0.06963
C          C       0.19575   0.86145   0.31963
C          C       0.80425   0.86145   0.31963
C          C       0.19575   0.13855   0.06963
C          C       0.19575   0.86145   0.43037
C          C       0.80425   0.13855   0.18037
C          C       0.81109   0.69457   0.34497
C          C       0.18891   0.30543   0.09496
C          C       0.18891   0.69457   0.40503
C          C       0.81109   0.30543   0.15503
C          C       0.18891   0.30543   0.15503
C          C       0.81109   0.69457   0.40503
C          C       0.81109   0.30543   0.09496
C          C       0.18891   0.69457   0.34497
C          C       0.31109   0.19457   0.34497
C          C       0.68891   0.80543   0.09496
C          C       0.68891   0.19457   0.40503
C          C       0.31109   0.80543   0.15503
C          C       0.68891   0.80543   0.15503
C          C       0.31109   0.19457   0.40503
C          C       0.31109   0.80543   0.09496
C          C       0.68891   0.19457   0.34497
C          C       0.78011   0.68698   0.32231
C          C       0.21989   0.31302   0.07231
C          C       0.21989   0.68698   0.42769
C          C       0.78011   0.31302   0.17769
C          C       0.21989   0.31302   0.17769
C          C       0.78011   0.68698   0.42769
C          C       0.78011   0.31302   0.07231
C          C       0.21989   0.68698   0.32231
C          C       0.28011   0.18698   0.32231
C          C       0.71989   0.81302   0.07231
C          C       0.71989   0.18698   0.42769
C          C       0.28011   0.81302   0.17769
C          C       0.71989   0.81302   0.17769
C          C       0.28011   0.18698   0.42769
C          C       0.28011   0.81302   0.07231
C          C       0.71989   0.18698   0.32231
C          C       0.71697   0.69459   0.30131
C          C       0.28303   0.30541   0.05132
C          C       0.28303   0.69459   0.44869
C          C       0.71697   0.30541   0.19869
C          C       0.28303   0.30541   0.19869
C          C       0.71697   0.69459   0.44869
C          C       0.71697   0.30541   0.05132
C          C       0.28303   0.69459   0.30131
C          C       0.21697   0.19459   0.30131
C          C       0.78303   0.80541   0.05132
C          C       0.78303   0.19459   0.44869
C          C       0.21697   0.80541   0.19869
C          C       0.78303   0.80541   0.19869
C          C       0.21697   0.19459   0.44869
C          C       0.21697   0.80541   0.05132
C          C       0.78303   0.19459   0.30131
C          C       0.66620   0.70930   0.30514
C          C       0.33380   0.29070   0.05514
C          C       0.33380   0.70930   0.44486
C          C       0.66620   0.29070   0.19486
C          C       0.33380   0.29070   0.19486
C          C       0.66620   0.70930   0.44486
C          C       0.66620   0.29070   0.05514
C          C       0.33380   0.70930   0.30514
C          C       0.16620   0.20930   0.30514
C          C       0.83380   0.79070   0.05514
C          C       0.83380   0.20930   0.44486
C          C       0.16620   0.79070   0.19486
C          C       0.83380   0.79070   0.19486
C          C       0.16620   0.20930   0.44486
C          C       0.16620   0.79070   0.05514
C          C       0.83380   0.20930   0.30514
C          C       0.67310   0.71588   0.33010
C          C       0.32690   0.28412   0.08010
C          C       0.32690   0.71588   0.41991
C          C       0.67310   0.28412   0.16990
C          C       0.32690   0.28412   0.16990
C          C       0.67310   0.71588   0.41991
C          C       0.67310   0.28412   0.08010
C          C       0.32690   0.71588   0.33010
C          C       0.17310   0.21588   0.33010
C          C       0.82690   0.78412   0.08010
C          C       0.82690   0.21588   0.41991
C          C       0.17310   0.78412   0.16990
C          C       0.82690   0.78412   0.16990
C          C       0.17310   0.21588   0.41991
C          C       0.17310   0.78412   0.08010
C          C       0.82690   0.21588   0.33010
C          C       0.75595   0.70907   0.35028
C          C       0.24405   0.29093   0.10027
C          C       0.24405   0.70907   0.39972
C          C       0.75595   0.29093   0.14972
C          C       0.24405   0.29093   0.14972
C          C       0.75595   0.70907   0.39972
C          C       0.75595   0.29093   0.10027
C          C       0.24405   0.70907   0.35028
C          C       0.25595   0.20907   0.35028
C          C       0.74405   0.79093   0.10027
C          C       0.74405   0.20907   0.39972
C          C       0.25595   0.79093   0.14972
C          C       0.74405   0.79093   0.14972
C          C       0.25595   0.20907   0.39972
C          C       0.25595   0.79093   0.10027
C          C       0.74405   0.20907   0.35028
S          S       0.65581   0.61593   0.15395
S          S       0.34419   0.38407   0.40395
S          S       0.34419   0.61593   0.09605
S          S       0.65581   0.38407   0.34605
S          S       0.34419   0.38407   0.34605
S          S       0.65581   0.61593   0.09605
S          S       0.65581   0.38407   0.40395
S          S       0.34419   0.61593   0.15395
S          S       0.15581   0.11593   0.15395
S          S       0.84419   0.88407   0.40395
S          S       0.84419   0.11593   0.09605
S          S       0.15581   0.88407   0.34605
S          S       0.84419   0.88407   0.34605
S          S       0.15581   0.11593   0.09605
S          S       0.15581   0.88407   0.40395
S          S       0.84419   0.11593   0.15395
N          N       0.70439   0.68736   0.27639
N          N       0.29561   0.31264   0.02639
N          N       0.29561   0.68736   0.47361
N          N       0.70439   0.31264   0.22361
N          N       0.29561   0.31264   0.22361
N          N       0.70439   0.68736   0.47361
N          N       0.70439   0.31264   0.02639
N          N       0.29561   0.68736   0.27639
N          N       0.20439   0.18736   0.27639
N          N       0.79561   0.81264   0.02639
N          N       0.79561   0.18736   0.47361
N          N       0.20439   0.81264   0.22361
N          N       0.79561   0.81264   0.22361
N          N       0.20439   0.18736   0.47361
N          N       0.20439   0.81264   0.02639
N          N       0.79561   0.18736   0.27639
C          C       0.79751   0.43891   0.39870
C          C       0.20249   0.56109   0.14870
C          C       0.20249   0.43891   0.35130
C          C       0.79751   0.56109   0.10130
C          C       0.20249   0.56109   0.10130
C          C       0.79751   0.43891   0.35130
C          C       0.79751   0.56109   0.14870
C          C       0.20249   0.43891   0.39870
C          C       0.29751   0.93891   0.39870
C          C       0.70249   0.06109   0.14870
C          C       0.70249   0.93891   0.35130
C          C       0.29751   0.06109   0.10130
C          C       0.70249   0.06109   0.10130
C          C       0.29751   0.93891   0.35130
C          C       0.29751   0.06109   0.14870
C          C       0.70249   0.93891   0.39870
C          C       0.73195   0.45312   0.39874
C          C       0.26805   0.54688   0.14874
C          C       0.26805   0.45312   0.35126
C          C       0.73195   0.54688   0.10126
C          C       0.26805   0.54688   0.10126
C          C       0.73195   0.45312   0.35126
C          C       0.73195   0.54688   0.14874
C          C       0.26805   0.45312   0.39874
C          C       0.23195   0.95312   0.39874
C          C       0.76805   0.04688   0.14874
C          C       0.76805   0.95312   0.35126
C          C       0.23195   0.04688   0.10126
C          C       0.76805   0.04688   0.10126
C          C       0.23195   0.95312   0.35126
C          C       0.23195   0.04688   0.14874
C          C       0.76805   0.95312   0.39874
C          C       0.69032   0.50932   0.39855
C          C       0.30968   0.49068   0.14855
C          C       0.30968   0.50932   0.35145
C          C       0.69032   0.49068   0.10145
C          C       0.30968   0.49068   0.10145
C          C       0.69032   0.50932   0.35145
C          C       0.69032   0.49068   0.14855
C          C       0.30968   0.50932   0.39855
C          C       0.19032   0.00932   0.39855
C          C       0.80968   0.99068   0.14855
C          C       0.80968   0.00932   0.35145
C          C       0.19032   0.99068   0.10145
C          C       0.80968   0.99068   0.10145
C          C       0.19032   0.00932   0.35145
C          C       0.19032   0.99068   0.14855
C          C       0.80968   0.00932   0.39855
C          C       0.66799   0.52490   0.39846
C          C       0.33201   0.47510   0.14846
C          C       0.33201   0.52490   0.35154
C          C       0.66799   0.47510   0.10154
C          C       0.33201   0.47510   0.10154
C          C       0.66799   0.52490   0.35154
C          C       0.66799   0.47510   0.14846
C          C       0.33201   0.52490   0.39846
C          C       0.16799   0.02490   0.39846
C          C       0.83201   0.97510   0.14846
C          C       0.83201   0.02490   0.35154
C          C       0.16799   0.97510   0.10154
C          C       0.83201   0.97510   0.10154
C          C       0.16799   0.02490   0.35154
C          C       0.16799   0.97510   0.14846
C          C       0.83201   0.02490   0.39846
C          C       0.79335   0.57647   0.25573
C          C       0.20665   0.42353   0.00574
C          C       0.20665   0.57647   0.49427
C          C       0.79335   0.42353   0.24426
C          C       0.20665   0.42353   0.24426
C          C       0.79335   0.57647   0.49427
C          C       0.79335   0.42353   0.00574
C          C       0.20665   0.57647   0.25573
C          C       0.29335   0.07647   0.25573
C          C       0.70665   0.92353   0.00574
C          C       0.70665   0.07647   0.49427
C          C       0.29335   0.92353   0.24426
C          C       0.70665   0.92353   0.24426
C          C       0.29335   0.07647   0.49427
C          C       0.29335   0.92353   0.00574
C          C       0.70665   0.07647   0.25573
C          C       0.76736   0.58816   0.23637
C          C       0.23264   0.41184   0.48637
C          C       0.23264   0.58816   0.01363
C          C       0.76736   0.41184   0.26363
C          C       0.23264   0.41184   0.26363
C          C       0.76736   0.58816   0.01363
C          C       0.76736   0.41184   0.48637
C          C       0.23264   0.58816   0.23637
C          C       0.26736   0.08816   0.23637
C          C       0.73264   0.91184   0.48637
C          C       0.73264   0.08816   0.01363
C          C       0.26736   0.91184   0.26363
C          C       0.73264   0.91184   0.26363
C          C       0.26736   0.08816   0.01363
C          C       0.26736   0.91184   0.48637
C          C       0.73264   0.08816   0.23637
C          C       0.82462   0.58655   0.21159
C          C       0.17538   0.41345   0.46159
C          C       0.17538   0.58655   0.03841
C          C       0.82462   0.41345   0.28841
C          C       0.17538   0.41345   0.28841
C          C       0.82462   0.58655   0.03841
C          C       0.82462   0.41345   0.46159
C          C       0.17538   0.58655   0.21159
C          C       0.32462   0.08655   0.21159
C          C       0.67538   0.91345   0.46159
C          C       0.67538   0.08655   0.03841
C          C       0.32462   0.91345   0.28841
C          C       0.67538   0.91345   0.28841
C          C       0.32462   0.08655   0.03841
C          C       0.32462   0.91345   0.46159
C          C       0.67538   0.08655   0.21159
C          C       0.81566   0.59851   0.19422
C          C       0.18434   0.40149   0.44422
C          C       0.18434   0.59851   0.05578
C          C       0.81566   0.40149   0.30578
C          C       0.18434   0.40149   0.30578
C          C       0.81566   0.59851   0.05578
C          C       0.81566   0.40149   0.44422
C          C       0.18434   0.59851   0.19422
C          C       0.31566   0.09851   0.19422
C          C       0.68434   0.90149   0.44422
C          C       0.68434   0.09851   0.05578
C          C       0.31566   0.90149   0.30578
C          C       0.68434   0.90149   0.30578
C          C       0.31566   0.09851   0.05578
C          C       0.31566   0.90149   0.44422
C          C       0.68434   0.09851   0.19422
C          C       0.73587   0.61172   0.20034
C          C       0.26413   0.38828   0.45034
C          C       0.26413   0.61172   0.04966
C          C       0.73587   0.38828   0.29966
C          C       0.26413   0.38828   0.29966
C          C       0.73587   0.61172   0.04966
C          C       0.73587   0.38828   0.45034
C          C       0.26413   0.61172   0.20034
C          C       0.23587   0.11172   0.20034
C          C       0.76413   0.88828   0.45034
C          C       0.76413   0.11172   0.04966
C          C       0.23587   0.88828   0.29966
C          C       0.76413   0.88828   0.29966
C          C       0.23587   0.11172   0.04966
C          C       0.23587   0.88828   0.45034
C          C       0.76413   0.11172   0.20034
C          C       0.67440   0.61304   0.22516
C          C       0.32560   0.38696   0.47515
C          C       0.32560   0.61304   0.02484
C          C       0.67440   0.38696   0.27485
C          C       0.32560   0.38696   0.27485
C          C       0.67440   0.61304   0.02484
C          C       0.67440   0.38696   0.47515
C          C       0.32560   0.61304   0.22516
C          C       0.17440   0.11304   0.22516
C          C       0.82560   0.88696   0.47515
C          C       0.82560   0.11304   0.02484
C          C       0.17440   0.88696   0.27485
C          C       0.82560   0.88696   0.27485
C          C       0.17440   0.11304   0.02484
C          C       0.17440   0.88696   0.47515
C          C       0.82560   0.11304   0.22516
C          C       0.69194   0.60151   0.24324
C          C       0.30806   0.39849   0.49324
C          C       0.30806   0.60151   0.00676
C          C       0.69194   0.39849   0.25676
C          C       0.30806   0.39849   0.25676
C          C       0.69194   0.60151   0.00676
C          C       0.69194   0.39849   0.49324
C          C       0.30806   0.60151   0.24324
C          C       0.19194   0.10151   0.24324
C          C       0.80806   0.89849   0.49324
C          C       0.80806   0.10151   0.00676
C          C       0.19194   0.89849   0.25676
C          C       0.80806   0.89849   0.25676
C          C       0.19194   0.10151   0.00676
C          C       0.19194   0.89849   0.49324
C          C       0.80806   0.10151   0.24324
C          C       0.70060   0.62260   0.17938
C          C       0.29940   0.37740   0.42939
C          C       0.29940   0.62260   0.07062
C          C       0.70060   0.37740   0.32061
C          C       0.29940   0.37740   0.32061
C          C       0.70060   0.62260   0.07062
C          C       0.70060   0.37740   0.42939
C          C       0.29940   0.62260   0.17938
C          C       0.20060   0.12260   0.17938
C          C       0.79940   0.87740   0.42939
C          C       0.79940   0.12260   0.07062
C          C       0.20060   0.87740   0.32061
C          C       0.79940   0.87740   0.32061
C          C       0.20060   0.12260   0.07062
C          C       0.20060   0.87740   0.42939
C          C       0.79940   0.12260   0.17938
C          C       0.71612   0.57973   0.32298
C          C       0.28388   0.42027   0.07298
C          C       0.28388   0.57973   0.42702
C          C       0.71612   0.42027   0.17702
C          C       0.28388   0.42027   0.17702
C          C       0.71612   0.57973   0.42702
C          C       0.71612   0.42027   0.07298
C          C       0.28388   0.57973   0.32298
C          C       0.21612   0.07973   0.32298
C          C       0.78388   0.92027   0.07298
C          C       0.78388   0.07973   0.42702
C          C       0.21612   0.92027   0.17702
C          C       0.78388   0.92027   0.17702
C          C       0.21612   0.07973   0.42702
C          C       0.21612   0.92027   0.07298
C          C       0.78388   0.07973   0.32298
C          C       0.78424   0.57256   0.30269
C          C       0.21576   0.42744   0.05269
C          C       0.21576   0.57256   0.44731
C          C       0.78424   0.42744   0.19731
C          C       0.21576   0.42744   0.19731
C          C       0.78424   0.57256   0.44731
C          C       0.78424   0.42744   0.05269
C          C       0.21576   0.57256   0.30269
C          C       0.28424   0.07256   0.30269
C          C       0.71576   0.92744   0.05269
C          C       0.71576   0.07256   0.44731
C          C       0.28424   0.92744   0.19731
C          C       0.71576   0.92744   0.19731
C          C       0.28424   0.07256   0.44731
C          C       0.28424   0.92744   0.05269
C          C       0.71576   0.07256   0.30269
C          C       0.83368   0.55768   0.30541
C          C       0.16632   0.44232   0.05541
C          C       0.16632   0.55768   0.44459
C          C       0.83368   0.44232   0.19459
C          C       0.16632   0.44232   0.19459
C          C       0.83368   0.55768   0.44459
C          C       0.83368   0.44232   0.05541
C          C       0.16632   0.55768   0.30541
C          C       0.33368   0.05768   0.30541
C          C       0.66632   0.94232   0.05541
C          C       0.66632   0.05768   0.44459
C          C       0.33368   0.94232   0.19459
C          C       0.66632   0.94232   0.19459
C          C       0.33368   0.05768   0.44459
C          C       0.33368   0.94232   0.05541
C          C       0.66632   0.05768   0.30541
C          C       0.82632   0.55080   0.33008
C          C       0.17368   0.44920   0.08008
C          C       0.17368   0.55080   0.41992
C          C       0.82632   0.44920   0.16992
C          C       0.17368   0.44920   0.16992
C          C       0.82632   0.55080   0.41992
C          C       0.82632   0.44920   0.08008
C          C       0.17368   0.55080   0.33008
C          C       0.32632   0.05080   0.33008
C          C       0.67368   0.94920   0.08008
C          C       0.67368   0.05080   0.41992
C          C       0.32632   0.94920   0.16992
C          C       0.67368   0.94920   0.16992
C          C       0.32632   0.05080   0.41992
C          C       0.32632   0.94920   0.08008
C          C       0.67368   0.05080   0.33008
C          C       0.74338   0.55747   0.35040
C          C       0.25662   0.44253   0.10040
C          C       0.25662   0.55747   0.39960
C          C       0.74338   0.44253   0.14960
C          C       0.25662   0.44253   0.14960
C          C       0.74338   0.55747   0.39960
C          C       0.74338   0.44253   0.10040
C          C       0.25662   0.55747   0.35040
C          C       0.24338   0.05747   0.35040
C          C       0.75662   0.94253   0.10040
C          C       0.75662   0.05747   0.39960
C          C       0.24338   0.94253   0.14960
C          C       0.75662   0.94253   0.14960
C          C       0.24338   0.05747   0.39960
C          C       0.24338   0.94253   0.10040
C          C       0.75662   0.05747   0.35040
S          S       0.65169   0.64574   0.15513
S          S       0.34831   0.35426   0.40513
S          S       0.34831   0.64574   0.09487
S          S       0.65169   0.35426   0.34487
S          S       0.34831   0.35426   0.34487
S          S       0.65169   0.64574   0.09487
S          S       0.65169   0.35426   0.40513
S          S       0.34831   0.64574   0.15513
S          S       0.15169   0.14574   0.15513
S          S       0.84831   0.85426   0.40513
S          S       0.84831   0.14574   0.09487
S          S       0.15169   0.85426   0.34487
S          S       0.84831   0.85426   0.34487
S          S       0.15169   0.14574   0.09487
S          S       0.15169   0.85426   0.40513
S          S       0.84831   0.14574   0.15513
N          N       0.78645   0.58097   0.27945
N          N       0.21355   0.41903   0.02945
N          N       0.21355   0.58097   0.47055
N          N       0.78645   0.41903   0.22055
N          N       0.21355   0.41903   0.22055
N          N       0.78645   0.58097   0.47055
N          N       0.78645   0.41903   0.02945
N          N       0.21355   0.58097   0.27945
N          N       0.28645   0.08097   0.27945
N          N       0.71355   0.91903   0.02945
N          N       0.71355   0.08097   0.47055
N          N       0.28645   0.91903   0.22055
N          N       0.71355   0.91903   0.22055
N          N       0.28645   0.08097   0.47055
N          N       0.28645   0.91903   0.02945
N          N       0.71355   0.08097   0.27945
C          C       0.66801   0.82712   0.39848
C          C       0.33199   0.17288   0.14848
C          C       0.33199   0.82712   0.35151
C          C       0.66801   0.17288   0.10152
C          C       0.33199   0.17288   0.10152
C          C       0.66801   0.82712   0.35151
C          C       0.66801   0.17288   0.14848
C          C       0.33199   0.82712   0.39848
C          C       0.16801   0.32712   0.39848
C          C       0.83199   0.67288   0.14848
C          C       0.83199   0.32712   0.35151
C          C       0.16801   0.67288   0.10152
C          C       0.83199   0.67288   0.10152
C          C       0.16801   0.32712   0.35151
C          C       0.16801   0.67288   0.14848
C          C       0.83199   0.32712   0.39848
C          C       0.73393   0.81292   0.39863
C          C       0.26607   0.18708   0.14863
C          C       0.26607   0.81292   0.35137
C          C       0.73393   0.18708   0.10138
C          C       0.26607   0.18708   0.10138
C          C       0.73393   0.81292   0.35137
C          C       0.73393   0.18708   0.14863
C          C       0.26607   0.81292   0.39863
C          C       0.23393   0.31292   0.39863
C          C       0.76607   0.68708   0.14863
C          C       0.76607   0.31292   0.35137
C          C       0.23393   0.68708   0.10138
C          C       0.76607   0.68708   0.10138
C          C       0.23393   0.31292   0.35137
C          C       0.23393   0.68708   0.14863
C          C       0.76607   0.31292   0.39863
C          C       0.81225   0.75712   0.39855
C          C       0.18775   0.24288   0.14855
C          C       0.18775   0.75712   0.35145
C          C       0.81225   0.24288   0.10145
C          C       0.18775   0.24288   0.10145
C          C       0.81225   0.75712   0.35145
C          C       0.81225   0.24288   0.14855
C          C       0.18775   0.75712   0.39855
C          C       0.31225   0.25712   0.39855
C          C       0.68775   0.74288   0.14855
C          C       0.68775   0.25712   0.35145
C          C       0.31225   0.74288   0.10145
C          C       0.68775   0.74288   0.10145
C          C       0.31225   0.25712   0.35145
C          C       0.31225   0.74288   0.14855
C          C       0.68775   0.25712   0.39855
C          C       0.83380   0.74153   0.39846
C          C       0.16620   0.25847   0.14846
C          C       0.16620   0.74153   0.35154
C          C       0.83380   0.25847   0.10154
C          C       0.16620   0.25847   0.10154
C          C       0.83380   0.74153   0.35154
C          C       0.83380   0.25847   0.14846
C          C       0.16620   0.74153   0.39846
C          C       0.33380   0.24153   0.39846
C          C       0.66620   0.75847   0.14846
C          C       0.66620   0.24153   0.35154
C          C       0.33380   0.75847   0.10154
C          C       0.66620   0.75847   0.10154
C          C       0.33380   0.24153   0.35154
C          C       0.33380   0.75847   0.14846
C          C       0.66620   0.24153   0.39846
C          C       0.79131   0.67635   0.26987
C          C       0.20869   0.32365   0.01987
C          C       0.20869   0.67635   0.48013
C          C       0.79131   0.32365   0.23013
C          C       0.20869   0.32365   0.23013
C          C       0.79131   0.67635   0.48013
C          C       0.79131   0.32365   0.01987
C          C       0.20869   0.67635   0.26987
C          C       0.29131   0.17635   0.26987
C          C       0.70869   0.82365   0.01987
C          C       0.70869   0.17635   0.48013
C          C       0.29131   0.82365   0.23013
C          C       0.70869   0.82365   0.23013
C          C       0.29131   0.17635   0.48013
C          C       0.29131   0.82365   0.01987
C          C       0.70869   0.17635   0.26987
C          C       0.76742   0.66720   0.24686
C          C       0.23258   0.33280   0.49686
C          C       0.23258   0.66720   0.00314
C          C       0.76742   0.33280   0.25314
C          C       0.23258   0.33280   0.25314
C          C       0.76742   0.66720   0.00314
C          C       0.76742   0.33280   0.49686
C          C       0.23258   0.66720   0.24686
C          C       0.26742   0.16720   0.24686
C          C       0.73258   0.83280   0.49686
C          C       0.73258   0.16720   0.00314
C          C       0.26742   0.83280   0.25314
C          C       0.73258   0.83280   0.25314
C          C       0.26742   0.16720   0.00314
C          C       0.26742   0.83280   0.49686
C          C       0.73258   0.16720   0.24686
C          C       0.69189   0.67278   0.22538
C          C       0.30811   0.32722   0.47538
C          C       0.30811   0.67278   0.02462
C          C       0.69189   0.32722   0.27462
C          C       0.30811   0.32722   0.27462
C          C       0.69189   0.67278   0.02462
C          C       0.69189   0.32722   0.47538
C          C       0.30811   0.67278   0.22538
C          C       0.19189   0.17278   0.22538
C          C       0.80811   0.82722   0.47538
C          C       0.80811   0.17278   0.02462
C          C       0.19189   0.82722   0.27462
C          C       0.80811   0.82722   0.27462
C          C       0.19189   0.17278   0.02462
C          C       0.19189   0.82722   0.47538
C          C       0.80811   0.17278   0.22538
C          C       0.67182   0.66353   0.20383
C          C       0.32818   0.33647   0.45383
C          C       0.32818   0.66353   0.04617
C          C       0.67182   0.33647   0.29617
C          C       0.32818   0.33647   0.29617
C          C       0.67182   0.66353   0.04617
C          C       0.67182   0.33647   0.45383
C          C       0.32818   0.66353   0.20383
C          C       0.17182   0.16353   0.20383
C          C       0.82818   0.83647   0.45383
C          C       0.82818   0.16353   0.04617
C          C       0.17182   0.83647   0.29617
C          C       0.82818   0.83647   0.29617
C          C       0.17182   0.16353   0.04617
C          C       0.17182   0.83647   0.45383
C          C       0.82818   0.16353   0.20383
C          C       0.72678   0.64855   0.20319
C          C       0.27322   0.35145   0.45319
C          C       0.27322   0.64855   0.04681
C          C       0.72678   0.35145   0.29681
C          C       0.27322   0.35145   0.29681
C          C       0.72678   0.64855   0.04681
C          C       0.72678   0.35145   0.45319
C          C       0.27322   0.64855   0.20319
C          C       0.22678   0.14855   0.20319
C          C       0.77322   0.85145   0.45319
C          C       0.77322   0.14855   0.04681
C          C       0.22678   0.85145   0.29681
C          C       0.77322   0.85145   0.29681
C          C       0.22678   0.14855   0.04681
C          C       0.22678   0.85145   0.45319
C          C       0.77322   0.14855   0.20319
C          C       0.81464   0.64379   0.22402
C          C       0.18536   0.35621   0.47402
C          C       0.18536   0.64379   0.02598
C          C       0.81464   0.35621   0.27598
C          C       0.18536   0.35621   0.27598
C          C       0.81464   0.64379   0.02598
C          C       0.81464   0.35621   0.47402
C          C       0.18536   0.64379   0.22402
C          C       0.31464   0.14379   0.22402
C          C       0.68536   0.85621   0.47402
C          C       0.68536   0.14379   0.02598
C          C       0.31464   0.85621   0.27598
C          C       0.68536   0.85621   0.27598
C          C       0.31464   0.14379   0.02598
C          C       0.31464   0.85621   0.47402
C          C       0.68536   0.14379   0.22402
C          C       0.82604   0.65261   0.24633
C          C       0.17396   0.34739   0.49633
C          C       0.17396   0.65261   0.00367
C          C       0.82604   0.34739   0.25367
C          C       0.17396   0.34739   0.25367
C          C       0.82604   0.65261   0.00367
C          C       0.82604   0.34739   0.49633
C          C       0.17396   0.65261   0.24633
C          C       0.32604   0.15261   0.24633
C          C       0.67396   0.84739   0.49633
C          C       0.67396   0.15261   0.00367
C          C       0.32604   0.84739   0.25367
C          C       0.67396   0.84739   0.25367
C          C       0.32604   0.15261   0.00367
C          C       0.32604   0.84739   0.49633
C          C       0.67396   0.15261   0.24633
H          H       0.88588   0.68865   0.35644
H          H       0.11412   0.31135   0.10644
H          H       0.11412   0.68865   0.39356
H          H       0.88588   0.31135   0.14356
H          H       0.11412   0.31135   0.14356
H          H       0.88588   0.68865   0.39356
H          H       0.88588   0.31135   0.10644
H          H       0.11412   0.68865   0.35644
H          H       0.38588   0.18865   0.35644
H          H       0.61412   0.81135   0.10644
H          H       0.61412   0.18865   0.39356
H          H       0.38588   0.81135   0.14356
H          H       0.61412   0.81135   0.14356
H          H       0.38588   0.18865   0.39356
H          H       0.38588   0.81135   0.10644
H          H       0.61412   0.18865   0.35644
H          H       0.81423   0.67528   0.32116
H          H       0.18577   0.32472   0.07116
H          H       0.18577   0.67528   0.42884
H          H       0.81423   0.32472   0.17884
H          H       0.18577   0.32472   0.17884
H          H       0.81423   0.67528   0.42884
H          H       0.81423   0.32472   0.07116
H          H       0.18577   0.67528   0.32116
H          H       0.31423   0.17528   0.32116
H          H       0.68577   0.82472   0.07116
H          H       0.68577   0.17528   0.42884
H          H       0.31423   0.82472   0.17884
H          H       0.68577   0.82472   0.17884
H          H       0.31423   0.17528   0.42884
H          H       0.31423   0.82472   0.07116
H          H       0.68577   0.17528   0.32116
H          H       0.62094   0.71559   0.28894
H          H       0.37906   0.28441   0.03894
H          H       0.37906   0.71559   0.46106
H          H       0.62094   0.28441   0.21106
H          H       0.37906   0.28441   0.21106
H          H       0.62094   0.71559   0.46106
H          H       0.62094   0.28441   0.03894
H          H       0.37906   0.71559   0.28894
H          H       0.12094   0.21559   0.28894
H          H       0.87906   0.78441   0.03894
H          H       0.87906   0.21559   0.46106
H          H       0.12094   0.78441   0.21106
H          H       0.87906   0.78441   0.21106
H          H       0.12094   0.21559   0.46106
H          H       0.12094   0.78441   0.03894
H          H       0.87906   0.21559   0.28894
H          H       0.62211   0.72677   0.33294
H          H       0.37789   0.27323   0.08295
H          H       0.37789   0.72677   0.41706
H          H       0.62211   0.27323   0.16706
H          H       0.37789   0.27323   0.16706
H          H       0.62211   0.72677   0.41706
H          H       0.62211   0.27323   0.08295
H          H       0.37789   0.72677   0.33294
H          H       0.12211   0.22677   0.33294
H          H       0.87789   0.77323   0.08295
H          H       0.87789   0.22677   0.41706
H          H       0.12211   0.77323   0.16706
H          H       0.87789   0.77323   0.16706
H          H       0.12211   0.22677   0.41706
H          H       0.12211   0.77323   0.08295
H          H       0.87789   0.22677   0.33294
H          H       0.82693   0.43368   0.41697
H          H       0.17307   0.56632   0.16697
H          H       0.17307   0.43368   0.33303
H          H       0.82693   0.56632   0.08303
H          H       0.17307   0.56632   0.08303
H          H       0.82693   0.43368   0.33303
H          H       0.82693   0.56632   0.16697
H          H       0.17307   0.43368   0.41697
H          H       0.32693   0.93368   0.41697
H          H       0.67307   0.06632   0.16697
H          H       0.67307   0.93368   0.33303
H          H       0.32693   0.06632   0.08303
H          H       0.67307   0.06632   0.08303
H          H       0.32693   0.93368   0.33303
H          H       0.32693   0.06632   0.16697
H          H       0.67307   0.93368   0.41697
H          H       0.71045   0.45876   0.41714
H          H       0.28955   0.54124   0.16714
H          H       0.28955   0.45876   0.33286
H          H       0.71045   0.54124   0.08286
H          H       0.28955   0.54124   0.08286
H          H       0.71045   0.45876   0.33286
H          H       0.71045   0.54124   0.16714
H          H       0.28955   0.45876   0.41714
H          H       0.21045   0.95876   0.41714
H          H       0.78955   0.04124   0.16714
H          H       0.78955   0.95876   0.33286
H          H       0.21045   0.04124   0.08286
H          H       0.78955   0.04124   0.08286
H          H       0.21045   0.95876   0.33286
H          H       0.21045   0.04124   0.16714
H          H       0.78955   0.95876   0.41714
H          H       0.69377   0.50322   0.41690
H          H       0.30623   0.49678   0.16690
H          H       0.30623   0.50322   0.33310
H          H       0.69377   0.49678   0.08310
H          H       0.30623   0.49678   0.08310
H          H       0.69377   0.50322   0.33310
H          H       0.69377   0.49678   0.16690
H          H       0.30623   0.50322   0.41690
H          H       0.19377   0.00322   0.41690
H          H       0.80623   0.99678   0.16690
H          H       0.80623   0.00322   0.33310
H          H       0.19377   0.99678   0.08310
H          H       0.80623   0.99678   0.08310
H          H       0.19377   0.00322   0.33310
H          H       0.19377   0.99678   0.16690
H          H       0.80623   0.00322   0.41690
H          H       0.80830   0.56469   0.25056
H          H       0.19170   0.43531   0.00056
H          H       0.19170   0.56469   0.49944
H          H       0.80830   0.43531   0.24944
H          H       0.19170   0.43531   0.24944
H          H       0.80830   0.56469   0.49944
H          H       0.80830   0.43531   0.00056
H          H       0.19170   0.56469   0.25056
H          H       0.30830   0.06469   0.25056
H          H       0.69170   0.93531   0.00056
H          H       0.69170   0.06469   0.49944
H          H       0.30830   0.93531   0.24944
H          H       0.69170   0.93531   0.24944
H          H       0.30830   0.06469   0.49944
H          H       0.30830   0.93531   0.00056
H          H       0.69170   0.06469   0.25056
H          H       0.87984   0.57624   0.20616
H          H       0.12016   0.42376   0.45616
H          H       0.12016   0.57624   0.04384
H          H       0.87984   0.42376   0.29384
H          H       0.12016   0.42376   0.29384
H          H       0.87984   0.57624   0.04384
H          H       0.87984   0.42376   0.45616
H          H       0.12016   0.57624   0.20616
H          H       0.37984   0.07624   0.20616
H          H       0.62016   0.92376   0.45616
H          H       0.62016   0.07624   0.04384
H          H       0.37984   0.92376   0.29384
H          H       0.62016   0.92376   0.29384
H          H       0.37984   0.07624   0.04384
H          H       0.37984   0.92376   0.45616
H          H       0.62016   0.07624   0.20616
H          H       0.86900   0.59725   0.17573
H          H       0.13100   0.40275   0.42573
H          H       0.13100   0.59725   0.07427
H          H       0.86900   0.40275   0.32427
H          H       0.13100   0.40275   0.32427
H          H       0.86900   0.59725   0.07427
H          H       0.86900   0.40275   0.42573
H          H       0.13100   0.59725   0.17573
H          H       0.36900   0.09725   0.17573
H          H       0.63100   0.90275   0.42573
H          H       0.63100   0.09725   0.07427
H          H       0.36900   0.90275   0.32427
H          H       0.63100   0.90275   0.32427
H          H       0.36900   0.09725   0.07427
H          H       0.36900   0.90275   0.42573
H          H       0.63100   0.09725   0.17573
H          H       0.61600   0.62310   0.23076
H          H       0.38400   0.37690   0.48076
H          H       0.38400   0.62310   0.01924
H          H       0.61600   0.37690   0.26924
H          H       0.38400   0.37690   0.26924
H          H       0.61600   0.62310   0.01924
H          H       0.61600   0.37690   0.48076
H          H       0.38400   0.62310   0.23076
H          H       0.11600   0.12310   0.23076
H          H       0.88400   0.87690   0.48076
H          H       0.88400   0.12310   0.01924
H          H       0.11600   0.87690   0.26924
H          H       0.88400   0.87690   0.26924
H          H       0.11600   0.12310   0.01924
H          H       0.11600   0.87690   0.48076
H          H       0.88400   0.12310   0.23076
H          H       0.64511   0.60301   0.26253
H          H       0.35489   0.39699   0.01253
H          H       0.35489   0.60301   0.48747
H          H       0.64511   0.39699   0.23747
H          H       0.35489   0.39699   0.23747
H          H       0.64511   0.60301   0.48747
H          H       0.64511   0.39699   0.01253
H          H       0.35489   0.60301   0.26253
H          H       0.14511   0.10301   0.26253
H          H       0.85489   0.89699   0.01253
H          H       0.85489   0.10301   0.48747
H          H       0.14511   0.89699   0.23747
H          H       0.85489   0.89699   0.23747
H          H       0.14511   0.10301   0.48747
H          H       0.14511   0.89699   0.01253
H          H       0.85489   0.10301   0.26253
H          H       0.67130   0.59102   0.32034
H          H       0.32870   0.40898   0.07034
H          H       0.32870   0.59102   0.42966
H          H       0.67130   0.40898   0.17966
H          H       0.32870   0.40898   0.17966
H          H       0.67130   0.59102   0.42966
H          H       0.67130   0.40898   0.07034
H          H       0.32870   0.59102   0.32034
H          H       0.17130   0.09102   0.32034
H          H       0.82870   0.90898   0.07034
H          H       0.82870   0.09102   0.42966
H          H       0.17130   0.90898   0.17966
H          H       0.82870   0.90898   0.17966
H          H       0.17130   0.09102   0.42966
H          H       0.17130   0.90898   0.07034
H          H       0.82870   0.09102   0.32034
H          H       0.87945   0.55163   0.28902
H          H       0.12055   0.44837   0.03902
H          H       0.12055   0.55163   0.46098
H          H       0.87945   0.44837   0.21098
H          H       0.12055   0.44837   0.21098
H          H       0.87945   0.55163   0.46098
H          H       0.87945   0.44837   0.03902
H          H       0.12055   0.55163   0.28902
H          H       0.37945   0.05163   0.28902
H          H       0.62055   0.94837   0.03902
H          H       0.62055   0.05163   0.46098
H          H       0.37945   0.94837   0.21098
H          H       0.62055   0.94837   0.21098
H          H       0.37945   0.05163   0.46098
H          H       0.37945   0.94837   0.03902
H          H       0.62055   0.05163   0.28902
H          H       0.87749   0.53989   0.33262
H          H       0.12251   0.46011   0.08262
H          H       0.12251   0.53989   0.41738
H          H       0.87749   0.46011   0.16738
H          H       0.12251   0.46011   0.16738
H          H       0.87749   0.53989   0.41738
H          H       0.87749   0.46011   0.08262
H          H       0.12251   0.53989   0.33262
H          H       0.37749   0.03989   0.33262
H          H       0.62251   0.96011   0.08262
H          H       0.62251   0.03989   0.41738
H          H       0.37749   0.96011   0.16738
H          H       0.62251   0.96011   0.16738
H          H       0.37749   0.03989   0.41738
H          H       0.37749   0.96011   0.08262
H          H       0.62251   0.03989   0.33262
H          H       0.63077   0.83197   0.41668
H          H       0.36923   0.16803   0.16668
H          H       0.36923   0.83197   0.33332
H          H       0.63077   0.16803   0.08332
H          H       0.36923   0.16803   0.08332
H          H       0.63077   0.83197   0.33332
H          H       0.63077   0.16803   0.16668
H          H       0.36923   0.83197   0.41668
H          H       0.13077   0.33197   0.41668
H          H       0.86923   0.66803   0.16668
H          H       0.86923   0.33197   0.33332
H          H       0.13077   0.66803   0.08332
H          H       0.86923   0.66803   0.08332
H          H       0.13077   0.33197   0.33332
H          H       0.13077   0.66803   0.16668
H          H       0.86923   0.33197   0.41668
H          H       0.75163   0.80712   0.41702
H          H       0.24837   0.19288   0.16702
H          H       0.24837   0.80712   0.33298
H          H       0.75163   0.19288   0.08298
H          H       0.24837   0.19288   0.08298
H          H       0.75163   0.80712   0.33298
H          H       0.75163   0.19288   0.16702
H          H       0.24837   0.80712   0.41702
H          H       0.25163   0.30712   0.41702
H          H       0.74837   0.69288   0.16702
H          H       0.74837   0.30712   0.33298
H          H       0.25163   0.69288   0.08298
H          H       0.74837   0.69288   0.08298
H          H       0.25163   0.30712   0.33298
H          H       0.25163   0.69288   0.16702
H          H       0.74837   0.30712   0.41702
H          H       0.80762   0.76320   0.41691
H          H       0.19238   0.23680   0.16691
H          H       0.19238   0.76320   0.33310
H          H       0.80762   0.23680   0.08309
H          H       0.19238   0.23680   0.08309
H          H       0.80762   0.76320   0.33310
H          H       0.80762   0.23680   0.16691
H          H       0.19238   0.76320   0.41691
H          H       0.30762   0.26320   0.41691
H          H       0.69238   0.73680   0.16691
H          H       0.69238   0.26320   0.33310
H          H       0.30762   0.73680   0.08309
H          H       0.69238   0.73680   0.08309
H          H       0.30762   0.26320   0.33310
H          H       0.30762   0.73680   0.16691
H          H       0.69238   0.26320   0.41691
H          H       0.85661   0.73618   0.41697
H          H       0.14339   0.26382   0.16697
H          H       0.14339   0.73618   0.33303
H          H       0.85661   0.26382   0.08303
H          H       0.14339   0.26382   0.08303
H          H       0.85661   0.73618   0.33303
H          H       0.85661   0.26382   0.16697
H          H       0.14339   0.73618   0.41697
H          H       0.35661   0.23618   0.41697
H          H       0.64339   0.76382   0.16697
H          H       0.64339   0.23618   0.33303
H          H       0.35661   0.76382   0.08303
H          H       0.64339   0.76382   0.08303
H          H       0.35661   0.23618   0.33303
H          H       0.35661   0.76382   0.16697
H          H       0.64339   0.23618   0.41697
H          H       0.88026   0.67289   0.28230
H          H       0.11974   0.32711   0.03230
H          H       0.11974   0.67289   0.46770
H          H       0.88026   0.32711   0.21770
H          H       0.11974   0.32711   0.21770
H          H       0.88026   0.67289   0.46770
H          H       0.88026   0.32711   0.03230
H          H       0.11974   0.67289   0.28230
H          H       0.38026   0.17289   0.28230
H          H       0.61974   0.82711   0.03230
H          H       0.61974   0.17289   0.46770
H          H       0.38026   0.82711   0.21770
H          H       0.61974   0.82711   0.21770
H          H       0.38026   0.17289   0.46770
H          H       0.38026   0.82711   0.03230
H          H       0.61974   0.17289   0.28230
H          H       0.64917   0.68422   0.22517
H          H       0.35083   0.31578   0.47517
H          H       0.35083   0.68422   0.02483
H          H       0.64917   0.31578   0.27483
H          H       0.35083   0.31578   0.27483
H          H       0.64917   0.68422   0.02483
H          H       0.64917   0.31578   0.47517
H          H       0.35083   0.68422   0.22517
H          H       0.14917   0.18422   0.22517
H          H       0.85083   0.81578   0.47517
H          H       0.85083   0.18422   0.02483
H          H       0.14917   0.81578   0.27483
H          H       0.85083   0.81578   0.27483
H          H       0.14917   0.18422   0.02483
H          H       0.14917   0.81578   0.47517
H          H       0.85083   0.18422   0.22517
H          H       0.61658   0.66845   0.18733
H          H       0.38342   0.33155   0.43733
H          H       0.38342   0.66845   0.06267
H          H       0.61658   0.33155   0.31267
H          H       0.38342   0.33155   0.31267
H          H       0.61658   0.66845   0.06267
H          H       0.61658   0.33155   0.43733
H          H       0.38342   0.66845   0.18733
H          H       0.11658   0.16845   0.18733
H          H       0.88342   0.83155   0.43733
H          H       0.88342   0.16845   0.06267
H          H       0.11658   0.83155   0.31267
H          H       0.88342   0.83155   0.31267
H          H       0.11658   0.16845   0.06267
H          H       0.11658   0.83155   0.43733
H          H       0.88342   0.16845   0.18733
H          H       0.87315   0.63322   0.22351
H          H       0.12685   0.36678   0.47352
H          H       0.12685   0.63322   0.02649
H          H       0.87315   0.36678   0.27648
H          H       0.12685   0.36678   0.27648
H          H       0.87315   0.63322   0.02649
H          H       0.87315   0.36678   0.47352
H          H       0.12685   0.63322   0.22351
H          H       0.37315   0.13322   0.22351
H          H       0.62685   0.86678   0.47352
H          H       0.62685   0.13322   0.02649
H          H       0.37315   0.86678   0.27648
H          H       0.62685   0.86678   0.27648
H          H       0.37315   0.13322   0.02649
H          H       0.37315   0.86678   0.47352
H          H       0.62685   0.13322   0.22351
H          H       0.88029   0.64802   0.26335
H          H       0.11971   0.35198   0.01335
H          H       0.11971   0.64802   0.48665
H          H       0.88029   0.35198   0.23665
H          H       0.11971   0.35198   0.23665
H          H       0.88029   0.64802   0.48665
H          H       0.88029   0.35198   0.01335
H          H       0.11971   0.64802   0.26335
H          H       0.38029   0.14802   0.26335
H          H       0.61971   0.85198   0.01335
H          H       0.61971   0.14802   0.48665
H          H       0.38029   0.85198   0.23665
H          H       0.61971   0.85198   0.23665
H          H       0.38029   0.14802   0.48665
H          H       0.38029   0.85198   0.01335
H          H       0.61971   0.14802   0.26335
S          S       0.86010   0.40304   0.37500
S          S       0.13990   0.59696   0.12500
S          S       0.13990   0.40304   0.37500
S          S       0.86010   0.59696   0.12500
S          S       0.36010   0.90304   0.37500
S          S       0.63990   0.09696   0.12500
S          S       0.63990   0.90304   0.37500
S          S       0.36010   0.09696   0.12500
N          N       0.74032   0.77980   0.37500
N          N       0.25968   0.22020   0.12500
N          N       0.25968   0.77980   0.37500
N          N       0.74032   0.22020   0.12500
N          N       0.24032   0.27980   0.37500
N          N       0.75968   0.72020   0.12500
N          N       0.75968   0.27980   0.37500
N          N       0.24032   0.72020   0.12500
N          N       0.78651   0.71689   0.37500
N          N       0.21349   0.28311   0.12500
N          N       0.21349   0.71689   0.37500
N          N       0.78651   0.28311   0.12500
N          N       0.28651   0.21689   0.37500
N          N       0.71349   0.78311   0.12500
N          N       0.71349   0.21689   0.37500
N          N       0.28651   0.78311   0.12500
C          C       0.77204   0.80610   0.37500
C          C       0.22796   0.19390   0.12500
C          C       0.22796   0.80610   0.37500
C          C       0.77204   0.19390   0.12500
C          C       0.27204   0.30610   0.37500
C          C       0.72796   0.69390   0.12500
C          C       0.72796   0.30610   0.37500
C          C       0.27204   0.69390   0.12500
C          C       0.65064   0.83520   0.37500
C          C       0.34936   0.16480   0.12500
C          C       0.34936   0.83520   0.37500
C          C       0.65064   0.16480   0.12500
C          C       0.15064   0.33520   0.37500
C          C       0.84936   0.66480   0.12500
C          C       0.84936   0.33520   0.37500
C          C       0.15064   0.66480   0.12500
C          C       0.83092   0.79092   0.37500
C          C       0.16908   0.20908   0.12500
C          C       0.16908   0.79092   0.37500
C          C       0.83092   0.20908   0.12500
C          C       0.33092   0.29092   0.37500
C          C       0.66908   0.70908   0.12500
C          C       0.66908   0.29092   0.37500
C          C       0.33092   0.70908   0.12500
C          C       0.82023   0.73316   0.37500
C          C       0.17977   0.26684   0.12500
C          C       0.17977   0.73316   0.37500
C          C       0.82023   0.26684   0.12500
C          C       0.32023   0.23316   0.37500
C          C       0.67977   0.76684   0.12500
C          C       0.67977   0.23316   0.37500
C          C       0.32023   0.76684   0.12500
C          C       0.79125   0.76469   0.37500
C          C       0.20875   0.23531   0.12500
C          C       0.20875   0.76469   0.37500
C          C       0.79125   0.23531   0.12500
C          C       0.29125   0.26469   0.37500
C          C       0.70875   0.73531   0.12500
C          C       0.70875   0.26469   0.37500
C          C       0.29125   0.73531   0.12500
C          C       0.92236   0.41836   0.37500
C          C       0.07764   0.58164   0.12500
C          C       0.07764   0.41836   0.37500
C          C       0.92236   0.58164   0.12500
C          C       0.42236   0.91836   0.37500
C          C       0.57764   0.08164   0.12500
C          C       0.57764   0.91836   0.37500
C          C       0.42236   0.08164   0.12500
S          S       0.61475   0.86671   0.37500
S          S       0.38525   0.13329   0.12500
S          S       0.38525   0.86671   0.37500
S          S       0.61475   0.13329   0.12500
S          S       0.11475   0.36671   0.37500
S          S       0.88525   0.63329   0.12500
S          S       0.88525   0.36671   0.37500
S          S       0.11475   0.63329   0.12500
N          N       0.75540   0.48639   0.37500
N          N       0.24460   0.51361   0.12500
N          N       0.24460   0.48639   0.37500
N          N       0.75540   0.51361   0.12500
N          N       0.25540   0.98639   0.37500
N          N       0.74460   0.01361   0.12500
N          N       0.74460   0.98639   0.37500
N          N       0.25540   0.01361   0.12500
N          N       0.71365   0.54956   0.37500
N          N       0.28635   0.45044   0.12500
N          N       0.28635   0.54956   0.37500
N          N       0.71365   0.45044   0.12500
N          N       0.21365   0.04956   0.37500
N          N       0.78635   0.95044   0.12500
N          N       0.78635   0.04956   0.37500
N          N       0.21365   0.95044   0.12500
C          C       0.70248   0.46032   0.37500
C          C       0.29752   0.53968   0.12500
C          C       0.29752   0.46032   0.37500
C          C       0.70248   0.53968   0.12500
C          C       0.20248   0.96032   0.37500
C          C       0.79752   0.03968   0.12500
C          C       0.79752   0.96032   0.37500
C          C       0.20248   0.03968   0.12500
C          C       0.83267   0.43193   0.37500
C          C       0.16733   0.56807   0.12500
C          C       0.16733   0.43193   0.37500
C          C       0.83267   0.56807   0.12500
C          C       0.33267   0.93193   0.37500
C          C       0.66733   0.06807   0.12500
C          C       0.66733   0.93193   0.37500
C          C       0.33267   0.06807   0.12500
C          C       0.65735   0.47597   0.37500
C          C       0.34265   0.52403   0.12500
C          C       0.34265   0.47597   0.37500
C          C       0.65735   0.52403   0.12500
C          C       0.15735   0.97597   0.37500
C          C       0.84265   0.02403   0.12500
C          C       0.84265   0.97597   0.37500
C          C       0.15735   0.02403   0.12500
C          C       0.68113   0.53327   0.37500
C          C       0.31887   0.46673   0.12500
C          C       0.31887   0.53327   0.37500
C          C       0.68113   0.46673   0.12500
C          C       0.18113   0.03327   0.37500
C          C       0.81887   0.96673   0.12500
C          C       0.81887   0.03327   0.37500
C          C       0.18113   0.96673   0.12500
C          C       0.71196   0.50176   0.37500
C          C       0.28804   0.49824   0.12500
C          C       0.28804   0.50176   0.37500
C          C       0.71196   0.49824   0.12500
C          C       0.21196   0.00176   0.37500
C          C       0.78804   0.99824   0.12500
C          C       0.78804   0.00176   0.37500
C          C       0.21196   0.99824   0.12500
C          C       0.57081   0.85015   0.37500
C          C       0.42919   0.14985   0.12500
C          C       0.42919   0.85015   0.37500
C          C       0.57081   0.14985   0.12500
C          C       0.07081   0.35015   0.37500
C          C       0.92919   0.64985   0.12500
C          C       0.92919   0.35015   0.37500
C          C       0.07081   0.64985   0.12500
Ni         Ni      0.50000   0.88533   0.37500
Ni         Ni      0.50000   0.11467   0.12500
Ni         Ni      0.00000   0.38533   0.37500
Ni         Ni      0.00000   0.61467   0.12500
C          C       0.21367   0.71893   0.42861
C          C       0.78633   0.28107   0.17861
C          C       0.78633   0.71893   0.32139
C          C       0.21367   0.28107   0.07139
C          C       0.78633   0.28107   0.07139
C          C       0.21367   0.71893   0.32139
C          C       0.21367   0.28107   0.17861
C          C       0.78633   0.71893   0.42861
C          C       0.71367   0.21893   0.42861
C          C       0.28633   0.78107   0.17861
C          C       0.28633   0.21893   0.32139
C          C       0.71367   0.78107   0.07139
C          C       0.28633   0.78107   0.07139
C          C       0.71367   0.21893   0.32139
C          C       0.71367   0.78107   0.17861
C          C       0.28633   0.21893   0.42861
Ni         Ni      0.64165   0.63090   0.12500
Ni         Ni      0.35835   0.36910   0.37500
Ni         Ni      0.35835   0.63090   0.12500
Ni         Ni      0.64165   0.36910   0.37500
Ni         Ni      0.14165   0.13090   0.12500
Ni         Ni      0.85835   0.86910   0.37500
Ni         Ni      0.85835   0.13090   0.12500
Ni         Ni      0.14165   0.86910   0.37500
H          H       0.64009   0.53073   0.33339
H          H       0.35991   0.46927   0.08339
H          H       0.35991   0.53073   0.41661
H          H       0.64009   0.46927   0.16661
H          H       0.35991   0.46927   0.16661
H          H       0.64009   0.53073   0.41661
H          H       0.64009   0.46927   0.08339
H          H       0.35991   0.53073   0.33339
H          H       0.14009   0.03073   0.33339
H          H       0.85991   0.96927   0.08339
H          H       0.85991   0.03073   0.41661
H          H       0.14009   0.96927   0.16661
H          H       0.85991   0.96927   0.16661
H          H       0.14009   0.03073   0.41661
H          H       0.14009   0.96927   0.08339
H          H       0.85991   0.03073   0.33339
H          H       0.16131   0.72985   0.31751
H          H       0.83869   0.27015   0.06751
H          H       0.83869   0.72985   0.43249
H          H       0.16131   0.27015   0.18249
H          H       0.83869   0.27015   0.18249
H          H       0.16131   0.72985   0.43249
H          H       0.16131   0.27015   0.06751
H          H       0.83869   0.72985   0.31751
H          H       0.66131   0.22985   0.31751
H          H       0.33869   0.77015   0.06751
H          H       0.33869   0.22985   0.43249
H          H       0.66131   0.77015   0.18249
H          H       0.33869   0.77015   0.18249
H          H       0.66131   0.22985   0.43249
H          H       0.66131   0.77015   0.06751
H          H       0.33869   0.22985   0.31751
H          H       0.94925   0.78895   0.37500
H          H       0.05075   0.21105   0.12500
H          H       0.05075   0.78895   0.37500
H          H       0.94925   0.21105   0.12500
H          H       0.44925   0.28895   0.37500
H          H       0.55075   0.71105   0.12500
H          H       0.55075   0.28895   0.37500
H          H       0.44925   0.71105   0.12500
H          H       0.54096   0.47893   0.37500
H          H       0.45904   0.52107   0.12500
H          H       0.45904   0.47893   0.37500
H          H       0.54096   0.52107   0.12500
H          H       0.04096   0.97893   0.37500
H          H       0.95904   0.02107   0.12500
H          H       0.95904   0.97893   0.37500
H          H       0.04096   0.02107   0.12500
C          C       0.70295   0.57179   0.40045
C          C       0.29705   0.42821   0.15045
C          C       0.29705   0.57179   0.34955
C          C       0.70295   0.42821   0.09955
C          C       0.29705   0.42821   0.09955
C          C       0.70295   0.57179   0.34955
C          C       0.70295   0.42821   0.15045
C          C       0.29705   0.57179   0.40045
C          C       0.20295   0.07179   0.40045
C          C       0.79705   0.92821   0.15045
C          C       0.79705   0.07179   0.34955
C          C       0.20295   0.92821   0.09955
C          C       0.79705   0.92821   0.09955
C          C       0.20295   0.07179   0.34955
C          C       0.20295   0.92821   0.15045
C          C       0.79705   0.07179   0.40045
H          H       0.64847   0.57752   0.36580
H          H       0.35153   0.42248   0.11580
H          H       0.35153   0.57752   0.38420
H          H       0.64847   0.42248   0.13420
H          H       0.35153   0.42248   0.13420
H          H       0.64847   0.57752   0.38420
H          H       0.64847   0.42248   0.11580
H          H       0.35153   0.57752   0.36580
H          H       0.14847   0.07752   0.36580
H          H       0.85153   0.92248   0.11580
H          H       0.85153   0.07752   0.38420
H          H       0.14847   0.92248   0.13420
H          H       0.85153   0.92248   0.13420
H          H       0.14847   0.07752   0.38420
H          H       0.14847   0.92248   0.11580
H          H       0.85153   0.07752   0.36580
C          C       0.69575   0.63855   0.68037
C          C       0.30425   0.36145   0.93037
C          C       0.30425   0.63855   0.56963
C          C       0.69575   0.36145   0.81963
C          C       0.30425   0.36145   0.81963
C          C       0.69575   0.63855   0.56963
C          C       0.69575   0.36145   0.93037
C          C       0.30425   0.63855   0.68037
C          C       0.19575   0.13855   0.68037
C          C       0.80425   0.86145   0.93037
C          C       0.80425   0.13855   0.56963
C          C       0.19575   0.86145   0.81963
C          C       0.80425   0.86145   0.81963
C          C       0.19575   0.13855   0.56963
C          C       0.19575   0.86145   0.93037
C          C       0.80425   0.13855   0.68037
C          C       0.81109   0.69457   0.84496
C          C       0.18891   0.30543   0.59496
C          C       0.18891   0.69457   0.90503
C          C       0.81109   0.30543   0.65503
C          C       0.18891   0.30543   0.65503
C          C       0.81109   0.69457   0.90503
C          C       0.81109   0.30543   0.59496
C          C       0.18891   0.69457   0.84496
C          C       0.31109   0.19457   0.84496
C          C       0.68891   0.80543   0.59496
C          C       0.68891   0.19457   0.90503
C          C       0.31109   0.80543   0.65503
C          C       0.68891   0.80543   0.65503
C          C       0.31109   0.19457   0.90503
C          C       0.31109   0.80543   0.59496
C          C       0.68891   0.19457   0.84496
C          C       0.78011   0.68698   0.82231
C          C       0.21989   0.31302   0.57231
C          C       0.21989   0.68698   0.92769
C          C       0.78011   0.31302   0.67769
C          C       0.21989   0.31302   0.67769
C          C       0.78011   0.68698   0.92769
C          C       0.78011   0.31302   0.57231
C          C       0.21989   0.68698   0.82231
C          C       0.28011   0.18698   0.82231
C          C       0.71989   0.81302   0.57231
C          C       0.71989   0.18698   0.92769
C          C       0.28011   0.81302   0.67769
C          C       0.71989   0.81302   0.67769
C          C       0.28011   0.18698   0.92769
C          C       0.28011   0.81302   0.57231
C          C       0.71989   0.18698   0.82231
C          C       0.71697   0.69459   0.80131
C          C       0.28303   0.30541   0.55131
C          C       0.28303   0.69459   0.94869
C          C       0.71697   0.30541   0.69869
C          C       0.28303   0.30541   0.69869
C          C       0.71697   0.69459   0.94869
C          C       0.71697   0.30541   0.55131
C          C       0.28303   0.69459   0.80131
C          C       0.21697   0.19459   0.80131
C          C       0.78303   0.80541   0.55131
C          C       0.78303   0.19459   0.94869
C          C       0.21697   0.80541   0.69869
C          C       0.78303   0.80541   0.69869
C          C       0.21697   0.19459   0.94869
C          C       0.21697   0.80541   0.55131
C          C       0.78303   0.19459   0.80131
C          C       0.66620   0.70930   0.80514
C          C       0.33380   0.29070   0.55514
C          C       0.33380   0.70930   0.94486
C          C       0.66620   0.29070   0.69486
C          C       0.33380   0.29070   0.69486
C          C       0.66620   0.70930   0.94486
C          C       0.66620   0.29070   0.55514
C          C       0.33380   0.70930   0.80514
C          C       0.16620   0.20930   0.80514
C          C       0.83380   0.79070   0.55514
C          C       0.83380   0.20930   0.94486
C          C       0.16620   0.79070   0.69486
C          C       0.83380   0.79070   0.69486
C          C       0.16620   0.20930   0.94486
C          C       0.16620   0.79070   0.55514
C          C       0.83380   0.20930   0.80514
C          C       0.67310   0.71588   0.83010
C          C       0.32690   0.28412   0.58010
C          C       0.32690   0.71588   0.91990
C          C       0.67310   0.28412   0.66991
C          C       0.32690   0.28412   0.66991
C          C       0.67310   0.71588   0.91990
C          C       0.67310   0.28412   0.58010
C          C       0.32690   0.71588   0.83010
C          C       0.17310   0.21588   0.83010
C          C       0.82690   0.78412   0.58010
C          C       0.82690   0.21588   0.91990
C          C       0.17310   0.78412   0.66991
C          C       0.82690   0.78412   0.66991
C          C       0.17310   0.21588   0.91990
C          C       0.17310   0.78412   0.58010
C          C       0.82690   0.21588   0.83010
C          C       0.75595   0.70907   0.85028
C          C       0.24405   0.29093   0.60028
C          C       0.24405   0.70907   0.89972
C          C       0.75595   0.29093   0.64972
C          C       0.24405   0.29093   0.64972
C          C       0.75595   0.70907   0.89972
C          C       0.75595   0.29093   0.60028
C          C       0.24405   0.70907   0.85028
C          C       0.25595   0.20907   0.85028
C          C       0.74405   0.79093   0.60028
C          C       0.74405   0.20907   0.89972
C          C       0.25595   0.79093   0.64972
C          C       0.74405   0.79093   0.64972
C          C       0.25595   0.20907   0.89972
C          C       0.25595   0.79093   0.60028
C          C       0.74405   0.20907   0.85028
S          S       0.65581   0.61593   0.65395
S          S       0.34419   0.38407   0.90395
S          S       0.34419   0.61593   0.59605
S          S       0.65581   0.38407   0.84605
S          S       0.34419   0.38407   0.84605
S          S       0.65581   0.61593   0.59605
S          S       0.65581   0.38407   0.90395
S          S       0.34419   0.61593   0.65395
S          S       0.15581   0.11593   0.65395
S          S       0.84419   0.88407   0.90395
S          S       0.84419   0.11593   0.59605
S          S       0.15581   0.88407   0.84605
S          S       0.84419   0.88407   0.84605
S          S       0.15581   0.11593   0.59605
S          S       0.15581   0.88407   0.90395
S          S       0.84419   0.11593   0.65395
N          N       0.70439   0.68736   0.77639
N          N       0.29561   0.31264   0.52639
N          N       0.29561   0.68736   0.97361
N          N       0.70439   0.31264   0.72361
N          N       0.29561   0.31264   0.72361
N          N       0.70439   0.68736   0.97361
N          N       0.70439   0.31264   0.52639
N          N       0.29561   0.68736   0.77639
N          N       0.20439   0.18736   0.77639
N          N       0.79561   0.81264   0.52639
N          N       0.79561   0.18736   0.97361
N          N       0.20439   0.81264   0.72361
N          N       0.79561   0.81264   0.72361
N          N       0.20439   0.18736   0.97361
N          N       0.20439   0.81264   0.52639
N          N       0.79561   0.18736   0.77639
C          C       0.79751   0.43891   0.89869
C          C       0.20249   0.56109   0.64870
C          C       0.20249   0.43891   0.85131
C          C       0.79751   0.56109   0.60130
C          C       0.20249   0.56109   0.60130
C          C       0.79751   0.43891   0.85131
C          C       0.79751   0.56109   0.64870
C          C       0.20249   0.43891   0.89869
C          C       0.29751   0.93891   0.89869
C          C       0.70249   0.06109   0.64870
C          C       0.70249   0.93891   0.85131
C          C       0.29751   0.06109   0.60130
C          C       0.70249   0.06109   0.60130
C          C       0.29751   0.93891   0.85131
C          C       0.29751   0.06109   0.64870
C          C       0.70249   0.93891   0.89869
C          C       0.73195   0.45312   0.89874
C          C       0.26805   0.54688   0.64874
C          C       0.26805   0.45312   0.85127
C          C       0.73195   0.54688   0.60126
C          C       0.26805   0.54688   0.60126
C          C       0.73195   0.45312   0.85127
C          C       0.73195   0.54688   0.64874
C          C       0.26805   0.45312   0.89874
C          C       0.23195   0.95312   0.89874
C          C       0.76805   0.04688   0.64874
C          C       0.76805   0.95312   0.85127
C          C       0.23195   0.04688   0.60126
C          C       0.76805   0.04688   0.60126
C          C       0.23195   0.95312   0.85127
C          C       0.23195   0.04688   0.64874
C          C       0.76805   0.95312   0.89874
C          C       0.69032   0.50932   0.89855
C          C       0.30968   0.49068   0.64855
C          C       0.30968   0.50932   0.85145
C          C       0.69032   0.49068   0.60145
C          C       0.30968   0.49068   0.60145
C          C       0.69032   0.50932   0.85145
C          C       0.69032   0.49068   0.64855
C          C       0.30968   0.50932   0.89855
C          C       0.19032   0.00932   0.89855
C          C       0.80968   0.99068   0.64855
C          C       0.80968   0.00932   0.85145
C          C       0.19032   0.99068   0.60145
C          C       0.80968   0.99068   0.60145
C          C       0.19032   0.00932   0.85145
C          C       0.19032   0.99068   0.64855
C          C       0.80968   0.00932   0.89855
C          C       0.66799   0.52490   0.89846
C          C       0.33201   0.47510   0.64846
C          C       0.33201   0.52490   0.85154
C          C       0.66799   0.47510   0.60154
C          C       0.33201   0.47510   0.60154
C          C       0.66799   0.52490   0.85154
C          C       0.66799   0.47510   0.64846
C          C       0.33201   0.52490   0.89846
C          C       0.16799   0.02490   0.89846
C          C       0.83201   0.97510   0.64846
C          C       0.83201   0.02490   0.85154
C          C       0.16799   0.97510   0.60154
C          C       0.83201   0.97510   0.60154
C          C       0.16799   0.02490   0.85154
C          C       0.16799   0.97510   0.64846
C          C       0.83201   0.02490   0.89846
C          C       0.79335   0.57647   0.75574
C          C       0.20665   0.42353   0.50574
C          C       0.20665   0.57647   0.99426
C          C       0.79335   0.42353   0.74427
C          C       0.20665   0.42353   0.74427
C          C       0.79335   0.57647   0.99426
C          C       0.79335   0.42353   0.50574
C          C       0.20665   0.57647   0.75574
C          C       0.29335   0.07647   0.75574
C          C       0.70665   0.92353   0.50574
C          C       0.70665   0.07647   0.99426
C          C       0.29335   0.92353   0.74427
C          C       0.70665   0.92353   0.74427
C          C       0.29335   0.07647   0.99426
C          C       0.29335   0.92353   0.50574
C          C       0.70665   0.07647   0.75574
C          C       0.76736   0.58816   0.73637
C          C       0.23264   0.41184   0.98637
C          C       0.23264   0.58816   0.51363
C          C       0.76736   0.41184   0.76363
C          C       0.23264   0.41184   0.76363
C          C       0.76736   0.58816   0.51363
C          C       0.76736   0.41184   0.98637
C          C       0.23264   0.58816   0.73637
C          C       0.26736   0.08816   0.73637
C          C       0.73264   0.91184   0.98637
C          C       0.73264   0.08816   0.51363
C          C       0.26736   0.91184   0.76363
C          C       0.73264   0.91184   0.76363
C          C       0.26736   0.08816   0.51363
C          C       0.26736   0.91184   0.98637
C          C       0.73264   0.08816   0.73637
C          C       0.82462   0.58655   0.71159
C          C       0.17538   0.41345   0.96159
C          C       0.17538   0.58655   0.53841
C          C       0.82462   0.41345   0.78840
C          C       0.17538   0.41345   0.78840
C          C       0.82462   0.58655   0.53841
C          C       0.82462   0.41345   0.96159
C          C       0.17538   0.58655   0.71159
C          C       0.32462   0.08655   0.71159
C          C       0.67538   0.91345   0.96159
C          C       0.67538   0.08655   0.53841
C          C       0.32462   0.91345   0.78840
C          C       0.67538   0.91345   0.78840
C          C       0.32462   0.08655   0.53841
C          C       0.32462   0.91345   0.96159
C          C       0.67538   0.08655   0.71159
C          C       0.81566   0.59851   0.69422
C          C       0.18434   0.40149   0.94422
C          C       0.18434   0.59851   0.55578
C          C       0.81566   0.40149   0.80578
C          C       0.18434   0.40149   0.80578
C          C       0.81566   0.59851   0.55578
C          C       0.81566   0.40149   0.94422
C          C       0.18434   0.59851   0.69422
C          C       0.31566   0.09851   0.69422
C          C       0.68434   0.90149   0.94422
C          C       0.68434   0.09851   0.55578
C          C       0.31566   0.90149   0.80578
C          C       0.68434   0.90149   0.80578
C          C       0.31566   0.09851   0.55578
C          C       0.31566   0.90149   0.94422
C          C       0.68434   0.09851   0.69422
C          C       0.73587   0.61172   0.70034
C          C       0.26413   0.38828   0.95034
C          C       0.26413   0.61172   0.54966
C          C       0.73587   0.38828   0.79966
C          C       0.26413   0.38828   0.79966
C          C       0.73587   0.61172   0.54966
C          C       0.73587   0.38828   0.95034
C          C       0.26413   0.61172   0.70034
C          C       0.23587   0.11172   0.70034
C          C       0.76413   0.88828   0.95034
C          C       0.76413   0.11172   0.54966
C          C       0.23587   0.88828   0.79966
C          C       0.76413   0.88828   0.79966
C          C       0.23587   0.11172   0.54966
C          C       0.23587   0.88828   0.95034
C          C       0.76413   0.11172   0.70034
C          C       0.67440   0.61304   0.72515
C          C       0.32560   0.38696   0.97515
C          C       0.32560   0.61304   0.52485
C          C       0.67440   0.38696   0.77485
C          C       0.32560   0.38696   0.77485
C          C       0.67440   0.61304   0.52485
C          C       0.67440   0.38696   0.97515
C          C       0.32560   0.61304   0.72515
C          C       0.17440   0.11304   0.72515
C          C       0.82560   0.88696   0.97515
C          C       0.82560   0.11304   0.52485
C          C       0.17440   0.88696   0.77485
C          C       0.82560   0.88696   0.77485
C          C       0.17440   0.11304   0.52485
C          C       0.17440   0.88696   0.97515
C          C       0.82560   0.11304   0.72515
C          C       0.69194   0.60151   0.74324
C          C       0.30806   0.39849   0.99324
C          C       0.30806   0.60151   0.50676
C          C       0.69194   0.39849   0.75676
C          C       0.30806   0.39849   0.75676
C          C       0.69194   0.60151   0.50676
C          C       0.69194   0.39849   0.99324
C          C       0.30806   0.60151   0.74324
C          C       0.19194   0.10151   0.74324
C          C       0.80806   0.89849   0.99324
C          C       0.80806   0.10151   0.50676
C          C       0.19194   0.89849   0.75676
C          C       0.80806   0.89849   0.75676
C          C       0.19194   0.10151   0.50676
C          C       0.19194   0.89849   0.99324
C          C       0.80806   0.10151   0.74324
C          C       0.70060   0.62260   0.67939
C          C       0.29940   0.37740   0.92939
C          C       0.29940   0.62260   0.57062
C          C       0.70060   0.37740   0.82061
C          C       0.29940   0.37740   0.82061
C          C       0.70060   0.62260   0.57062
C          C       0.70060   0.37740   0.92939
C          C       0.29940   0.62260   0.67939
C          C       0.20060   0.12260   0.67939
C          C       0.79940   0.87740   0.92939
C          C       0.79940   0.12260   0.57062
C          C       0.20060   0.87740   0.82061
C          C       0.79940   0.87740   0.82061
C          C       0.20060   0.12260   0.57062
C          C       0.20060   0.87740   0.92939
C          C       0.79940   0.12260   0.67939
C          C       0.71612   0.57973   0.82298
C          C       0.28388   0.42027   0.57298
C          C       0.28388   0.57973   0.92702
C          C       0.71612   0.42027   0.67703
C          C       0.28388   0.42027   0.67703
C          C       0.71612   0.57973   0.92702
C          C       0.71612   0.42027   0.57298
C          C       0.28388   0.57973   0.82298
C          C       0.21612   0.07973   0.82298
C          C       0.78388   0.92027   0.57298
C          C       0.78388   0.07973   0.92702
C          C       0.21612   0.92027   0.67703
C          C       0.78388   0.92027   0.67703
C          C       0.21612   0.07973   0.92702
C          C       0.21612   0.92027   0.57298
C          C       0.78388   0.07973   0.82298
C          C       0.78424   0.57256   0.80269
C          C       0.21576   0.42744   0.55269
C          C       0.21576   0.57256   0.94731
C          C       0.78424   0.42744   0.69731
C          C       0.21576   0.42744   0.69731
C          C       0.78424   0.57256   0.94731
C          C       0.78424   0.42744   0.55269
C          C       0.21576   0.57256   0.80269
C          C       0.28424   0.07256   0.80269
C          C       0.71576   0.92744   0.55269
C          C       0.71576   0.07256   0.94731
C          C       0.28424   0.92744   0.69731
C          C       0.71576   0.92744   0.69731
C          C       0.28424   0.07256   0.94731
C          C       0.28424   0.92744   0.55269
C          C       0.71576   0.07256   0.80269
C          C       0.83368   0.55768   0.80541
C          C       0.16632   0.44232   0.55541
C          C       0.16632   0.55768   0.94459
C          C       0.83368   0.44232   0.69459
C          C       0.16632   0.44232   0.69459
C          C       0.83368   0.55768   0.94459
C          C       0.83368   0.44232   0.55541
C          C       0.16632   0.55768   0.80541
C          C       0.33368   0.05768   0.80541
C          C       0.66632   0.94232   0.55541
C          C       0.66632   0.05768   0.94459
C          C       0.33368   0.94232   0.69459
C          C       0.66632   0.94232   0.69459
C          C       0.33368   0.05768   0.94459
C          C       0.33368   0.94232   0.55541
C          C       0.66632   0.05768   0.80541
C          C       0.82632   0.55080   0.83008
C          C       0.17368   0.44920   0.58008
C          C       0.17368   0.55080   0.91992
C          C       0.82632   0.44920   0.66992
C          C       0.17368   0.44920   0.66992
C          C       0.82632   0.55080   0.91992
C          C       0.82632   0.44920   0.58008
C          C       0.17368   0.55080   0.83008
C          C       0.32632   0.05080   0.83008
C          C       0.67368   0.94920   0.58008
C          C       0.67368   0.05080   0.91992
C          C       0.32632   0.94920   0.66992
C          C       0.67368   0.94920   0.66992
C          C       0.32632   0.05080   0.91992
C          C       0.32632   0.94920   0.58008
C          C       0.67368   0.05080   0.83008
C          C       0.74338   0.55747   0.85040
C          C       0.25662   0.44253   0.60040
C          C       0.25662   0.55747   0.89960
C          C       0.74338   0.44253   0.64960
C          C       0.25662   0.44253   0.64960
C          C       0.74338   0.55747   0.89960
C          C       0.74338   0.44253   0.60040
C          C       0.25662   0.55747   0.85040
C          C       0.24338   0.05747   0.85040
C          C       0.75662   0.94253   0.60040
C          C       0.75662   0.05747   0.89960
C          C       0.24338   0.94253   0.64960
C          C       0.75662   0.94253   0.64960
C          C       0.24338   0.05747   0.89960
C          C       0.24338   0.94253   0.60040
C          C       0.75662   0.05747   0.85040
S          S       0.65169   0.64574   0.65513
S          S       0.34831   0.35426   0.90513
S          S       0.34831   0.64574   0.59488
S          S       0.65169   0.35426   0.84488
S          S       0.34831   0.35426   0.84488
S          S       0.65169   0.64574   0.59488
S          S       0.65169   0.35426   0.90513
S          S       0.34831   0.64574   0.65513
S          S       0.15169   0.14574   0.65513
S          S       0.84831   0.85426   0.90513
S          S       0.84831   0.14574   0.59488
S          S       0.15169   0.85426   0.84488
S          S       0.84831   0.85426   0.84488
S          S       0.15169   0.14574   0.59488
S          S       0.15169   0.85426   0.90513
S          S       0.84831   0.14574   0.65513
N          N       0.78645   0.58097   0.77945
N          N       0.21355   0.41903   0.52945
N          N       0.21355   0.58097   0.97055
N          N       0.78645   0.41903   0.72055
N          N       0.21355   0.41903   0.72055
N          N       0.78645   0.58097   0.97055
N          N       0.78645   0.41903   0.52945
N          N       0.21355   0.58097   0.77945
N          N       0.28645   0.08097   0.77945
N          N       0.71355   0.91903   0.52945
N          N       0.71355   0.08097   0.97055
N          N       0.28645   0.91903   0.72055
N          N       0.71355   0.91903   0.72055
N          N       0.28645   0.08097   0.97055
N          N       0.28645   0.91903   0.52945
N          N       0.71355   0.08097   0.77945
C          C       0.66801   0.82712   0.89848
C          C       0.33199   0.17288   0.64848
C          C       0.33199   0.82712   0.85151
C          C       0.66801   0.17288   0.60152
C          C       0.33199   0.17288   0.60152
C          C       0.66801   0.82712   0.85151
C          C       0.66801   0.17288   0.64848
C          C       0.33199   0.82712   0.89848
C          C       0.16801   0.32712   0.89848
C          C       0.83199   0.67288   0.64848
C          C       0.83199   0.32712   0.85151
C          C       0.16801   0.67288   0.60152
C          C       0.83199   0.67288   0.60152
C          C       0.16801   0.32712   0.85151
C          C       0.16801   0.67288   0.64848
C          C       0.83199   0.32712   0.89848
C          C       0.73393   0.81292   0.89863
C          C       0.26607   0.18708   0.64863
C          C       0.26607   0.81292   0.85137
C          C       0.73393   0.18708   0.60137
C          C       0.26607   0.18708   0.60137
C          C       0.73393   0.81292   0.85137
C          C       0.73393   0.18708   0.64863
C          C       0.26607   0.81292   0.89863
C          C       0.23393   0.31292   0.89863
C          C       0.76607   0.68708   0.64863
C          C       0.76607   0.31292   0.85137
C          C       0.23393   0.68708   0.60137
C          C       0.76607   0.68708   0.60137
C          C       0.23393   0.31292   0.85137
C          C       0.23393   0.68708   0.64863
C          C       0.76607   0.31292   0.89863
C          C       0.81225   0.75712   0.89855
C          C       0.18775   0.24288   0.64855
C          C       0.18775   0.75712   0.85145
C          C       0.81225   0.24288   0.60145
C          C       0.18775   0.24288   0.60145
C          C       0.81225   0.75712   0.85145
C          C       0.81225   0.24288   0.64855
C          C       0.18775   0.75712   0.89855
C          C       0.31225   0.25712   0.89855
C          C       0.68775   0.74288   0.64855
C          C       0.68775   0.25712   0.85145
C          C       0.31225   0.74288   0.60145
C          C       0.68775   0.74288   0.60145
C          C       0.31225   0.25712   0.85145
C          C       0.31225   0.74288   0.64855
C          C       0.68775   0.25712   0.89855
C          C       0.83380   0.74153   0.89846
C          C       0.16620   0.25847   0.64846
C          C       0.16620   0.74153   0.85154
C          C       0.83380   0.25847   0.60154
C          C       0.16620   0.25847   0.60154
C          C       0.83380   0.74153   0.85154
C          C       0.83380   0.25847   0.64846
C          C       0.16620   0.74153   0.89846
C          C       0.33380   0.24153   0.89846
C          C       0.66620   0.75847   0.64846
C          C       0.66620   0.24153   0.85154
C          C       0.33380   0.75847   0.60154
C          C       0.66620   0.75847   0.60154
C          C       0.33380   0.24153   0.85154
C          C       0.33380   0.75847   0.64846
C          C       0.66620   0.24153   0.89846
C          C       0.79131   0.67635   0.76987
C          C       0.20869   0.32365   0.51987
C          C       0.20869   0.67635   0.98013
C          C       0.79131   0.32365   0.73013
C          C       0.20869   0.32365   0.73013
C          C       0.79131   0.67635   0.98013
C          C       0.79131   0.32365   0.51987
C          C       0.20869   0.67635   0.76987
C          C       0.29131   0.17635   0.76987
C          C       0.70869   0.82365   0.51987
C          C       0.70869   0.17635   0.98013
C          C       0.29131   0.82365   0.73013
C          C       0.70869   0.82365   0.73013
C          C       0.29131   0.17635   0.98013
C          C       0.29131   0.82365   0.51987
C          C       0.70869   0.17635   0.76987
C          C       0.76742   0.66720   0.74686
C          C       0.23258   0.33280   0.99686
C          C       0.23258   0.66720   0.50314
C          C       0.76742   0.33280   0.75314
C          C       0.23258   0.33280   0.75314
C          C       0.76742   0.66720   0.50314
C          C       0.76742   0.33280   0.99686
C          C       0.23258   0.66720   0.74686
C          C       0.26742   0.16720   0.74686
C          C       0.73258   0.83280   0.99686
C          C       0.73258   0.16720   0.50314
C          C       0.26742   0.83280   0.75314
C          C       0.73258   0.83280   0.75314
C          C       0.26742   0.16720   0.50314
C          C       0.26742   0.83280   0.99686
C          C       0.73258   0.16720   0.74686
C          C       0.69189   0.67278   0.72538
C          C       0.30811   0.32722   0.97538
C          C       0.30811   0.67278   0.52462
C          C       0.69189   0.32722   0.77462
C          C       0.30811   0.32722   0.77462
C          C       0.69189   0.67278   0.52462
C          C       0.69189   0.32722   0.97538
C          C       0.30811   0.67278   0.72538
C          C       0.19189   0.17278   0.72538
C          C       0.80811   0.82722   0.97538
C          C       0.80811   0.17278   0.52462
C          C       0.19189   0.82722   0.77462
C          C       0.80811   0.82722   0.77462
C          C       0.19189   0.17278   0.52462
C          C       0.19189   0.82722   0.97538
C          C       0.80811   0.17278   0.72538
C          C       0.67182   0.66353   0.70383
C          C       0.32818   0.33647   0.95383
C          C       0.32818   0.66353   0.54617
C          C       0.67182   0.33647   0.79617
C          C       0.32818   0.33647   0.79617
C          C       0.67182   0.66353   0.54617
C          C       0.67182   0.33647   0.95383
C          C       0.32818   0.66353   0.70383
C          C       0.17182   0.16353   0.70383
C          C       0.82818   0.83647   0.95383
C          C       0.82818   0.16353   0.54617
C          C       0.17182   0.83647   0.79617
C          C       0.82818   0.83647   0.79617
C          C       0.17182   0.16353   0.54617
C          C       0.17182   0.83647   0.95383
C          C       0.82818   0.16353   0.70383
C          C       0.72678   0.64855   0.70318
C          C       0.27322   0.35145   0.95319
C          C       0.27322   0.64855   0.54681
C          C       0.72678   0.35145   0.79681
C          C       0.27322   0.35145   0.79681
C          C       0.72678   0.64855   0.54681
C          C       0.72678   0.35145   0.95319
C          C       0.27322   0.64855   0.70318
C          C       0.22678   0.14855   0.70318
C          C       0.77322   0.85145   0.95319
C          C       0.77322   0.14855   0.54681
C          C       0.22678   0.85145   0.79681
C          C       0.77322   0.85145   0.79681
C          C       0.22678   0.14855   0.54681
C          C       0.22678   0.85145   0.95319
C          C       0.77322   0.14855   0.70318
C          C       0.81464   0.64379   0.72402
C          C       0.18536   0.35621   0.97402
C          C       0.18536   0.64379   0.52598
C          C       0.81464   0.35621   0.77598
C          C       0.18536   0.35621   0.77598
C          C       0.81464   0.64379   0.52598
C          C       0.81464   0.35621   0.97402
C          C       0.18536   0.64379   0.72402
C          C       0.31464   0.14379   0.72402
C          C       0.68536   0.85621   0.97402
C          C       0.68536   0.14379   0.52598
C          C       0.31464   0.85621   0.77598
C          C       0.68536   0.85621   0.77598
C          C       0.31464   0.14379   0.52598
C          C       0.31464   0.85621   0.97402
C          C       0.68536   0.14379   0.72402
C          C       0.82604   0.65261   0.74633
C          C       0.17396   0.34739   0.99633
C          C       0.17396   0.65261   0.50367
C          C       0.82604   0.34739   0.75367
C          C       0.17396   0.34739   0.75367
C          C       0.82604   0.65261   0.50367
C          C       0.82604   0.34739   0.99633
C          C       0.17396   0.65261   0.74633
C          C       0.32604   0.15261   0.74633
C          C       0.67396   0.84739   0.99633
C          C       0.67396   0.15261   0.50367
C          C       0.32604   0.84739   0.75367
C          C       0.67396   0.84739   0.75367
C          C       0.32604   0.15261   0.50367
C          C       0.32604   0.84739   0.99633
C          C       0.67396   0.15261   0.74633
H          H       0.88588   0.68865   0.85644
H          H       0.11412   0.31135   0.60644
H          H       0.11412   0.68865   0.89356
H          H       0.88588   0.31135   0.64355
H          H       0.11412   0.31135   0.64355
H          H       0.88588   0.68865   0.89356
H          H       0.88588   0.31135   0.60644
H          H       0.11412   0.68865   0.85644
H          H       0.38588   0.18865   0.85644
H          H       0.61412   0.81135   0.60644
H          H       0.61412   0.18865   0.89356
H          H       0.38588   0.81135   0.64355
H          H       0.61412   0.81135   0.64355
H          H       0.38588   0.18865   0.89356
H          H       0.38588   0.81135   0.60644
H          H       0.61412   0.18865   0.85644
H          H       0.81423   0.67528   0.82116
H          H       0.18577   0.32472   0.57116
H          H       0.18577   0.67528   0.92884
H          H       0.81423   0.32472   0.67884
H          H       0.18577   0.32472   0.67884
H          H       0.81423   0.67528   0.92884
H          H       0.81423   0.32472   0.57116
H          H       0.18577   0.67528   0.82116
H          H       0.31423   0.17528   0.82116
H          H       0.68577   0.82472   0.57116
H          H       0.68577   0.17528   0.92884
H          H       0.31423   0.82472   0.67884
H          H       0.68577   0.82472   0.67884
H          H       0.31423   0.17528   0.92884
H          H       0.31423   0.82472   0.57116
H          H       0.68577   0.17528   0.82116
H          H       0.62094   0.71559   0.78894
H          H       0.37906   0.28441   0.53894
H          H       0.37906   0.71559   0.96106
H          H       0.62094   0.28441   0.71106
H          H       0.37906   0.28441   0.71106
H          H       0.62094   0.71559   0.96106
H          H       0.62094   0.28441   0.53894
H          H       0.37906   0.71559   0.78894
H          H       0.12094   0.21559   0.78894
H          H       0.87906   0.78441   0.53894
H          H       0.87906   0.21559   0.96106
H          H       0.12094   0.78441   0.71106
H          H       0.87906   0.78441   0.71106
H          H       0.12094   0.21559   0.96106
H          H       0.12094   0.78441   0.53894
H          H       0.87906   0.21559   0.78894
H          H       0.62211   0.72677   0.83294
H          H       0.37789   0.27323   0.58295
H          H       0.37789   0.72677   0.91706
H          H       0.62211   0.27323   0.66705
H          H       0.37789   0.27323   0.66705
H          H       0.62211   0.72677   0.91706
H          H       0.62211   0.27323   0.58295
H          H       0.37789   0.72677   0.83294
H          H       0.12211   0.22677   0.83294
H          H       0.87789   0.77323   0.58295
H          H       0.87789   0.22677   0.91706
H          H       0.12211   0.77323   0.66705
H          H       0.87789   0.77323   0.66705
H          H       0.12211   0.22677   0.91706
H          H       0.12211   0.77323   0.58295
H          H       0.87789   0.22677   0.83294
H          H       0.82693   0.43368   0.91697
H          H       0.17307   0.56632   0.66697
H          H       0.17307   0.43368   0.83303
H          H       0.82693   0.56632   0.58303
H          H       0.17307   0.56632   0.58303
H          H       0.82693   0.43368   0.83303
H          H       0.82693   0.56632   0.66697
H          H       0.17307   0.43368   0.91697
H          H       0.32693   0.93368   0.91697
H          H       0.67307   0.06632   0.66697
H          H       0.67307   0.93368   0.83303
H          H       0.32693   0.06632   0.58303
H          H       0.67307   0.06632   0.58303
H          H       0.32693   0.93368   0.83303
H          H       0.32693   0.06632   0.66697
H          H       0.67307   0.93368   0.91697
H          H       0.71045   0.45876   0.91714
H          H       0.28955   0.54124   0.66714
H          H       0.28955   0.45876   0.83286
H          H       0.71045   0.54124   0.58286
H          H       0.28955   0.54124   0.58286
H          H       0.71045   0.45876   0.83286
H          H       0.71045   0.54124   0.66714
H          H       0.28955   0.45876   0.91714
H          H       0.21045   0.95876   0.91714
H          H       0.78955   0.04124   0.66714
H          H       0.78955   0.95876   0.83286
H          H       0.21045   0.04124   0.58286
H          H       0.78955   0.04124   0.58286
H          H       0.21045   0.95876   0.83286
H          H       0.21045   0.04124   0.66714
H          H       0.78955   0.95876   0.91714
H          H       0.69377   0.50322   0.91690
H          H       0.30623   0.49678   0.66690
H          H       0.30623   0.50322   0.83310
H          H       0.69377   0.49678   0.58310
H          H       0.30623   0.49678   0.58310
H          H       0.69377   0.50322   0.83310
H          H       0.69377   0.49678   0.66690
H          H       0.30623   0.50322   0.91690
H          H       0.19377   0.00322   0.91690
H          H       0.80623   0.99678   0.66690
H          H       0.80623   0.00322   0.83310
H          H       0.19377   0.99678   0.58310
H          H       0.80623   0.99678   0.58310
H          H       0.19377   0.00322   0.83310
H          H       0.19377   0.99678   0.66690
H          H       0.80623   0.00322   0.91690
H          H       0.80830   0.56469   0.75055
H          H       0.19170   0.43531   0.50056
H          H       0.19170   0.56469   0.99945
H          H       0.80830   0.43531   0.74944
H          H       0.19170   0.43531   0.74944
H          H       0.80830   0.56469   0.99945
H          H       0.80830   0.43531   0.50056
H          H       0.19170   0.56469   0.75055
H          H       0.30830   0.06469   0.75055
H          H       0.69170   0.93531   0.50056
H          H       0.69170   0.06469   0.99945
H          H       0.30830   0.93531   0.74944
H          H       0.69170   0.93531   0.74944
H          H       0.30830   0.06469   0.99945
H          H       0.30830   0.93531   0.50056
H          H       0.69170   0.06469   0.75055
H          H       0.87984   0.57624   0.70616
H          H       0.12016   0.42376   0.95616
H          H       0.12016   0.57624   0.54384
H          H       0.87984   0.42376   0.79384
H          H       0.12016   0.42376   0.79384
H          H       0.87984   0.57624   0.54384
H          H       0.87984   0.42376   0.95616
H          H       0.12016   0.57624   0.70616
H          H       0.37984   0.07624   0.70616
H          H       0.62016   0.92376   0.95616
H          H       0.62016   0.07624   0.54384
H          H       0.37984   0.92376   0.79384
H          H       0.62016   0.92376   0.79384
H          H       0.37984   0.07624   0.54384
H          H       0.37984   0.92376   0.95616
H          H       0.62016   0.07624   0.70616
H          H       0.86900   0.59725   0.67573
H          H       0.13100   0.40275   0.92574
H          H       0.13100   0.59725   0.57427
H          H       0.86900   0.40275   0.82427
H          H       0.13100   0.40275   0.82427
H          H       0.86900   0.59725   0.57427
H          H       0.86900   0.40275   0.92574
H          H       0.13100   0.59725   0.67573
H          H       0.36900   0.09725   0.67573
H          H       0.63100   0.90275   0.92574
H          H       0.63100   0.09725   0.57427
H          H       0.36900   0.90275   0.82427
H          H       0.63100   0.90275   0.82427
H          H       0.36900   0.09725   0.57427
H          H       0.36900   0.90275   0.92574
H          H       0.63100   0.09725   0.67573
H          H       0.61600   0.62310   0.73076
H          H       0.38400   0.37690   0.98076
H          H       0.38400   0.62310   0.51924
H          H       0.61600   0.37690   0.76924
H          H       0.38400   0.37690   0.76924
H          H       0.61600   0.62310   0.51924
H          H       0.61600   0.37690   0.98076
H          H       0.38400   0.62310   0.73076
H          H       0.11600   0.12310   0.73076
H          H       0.88400   0.87690   0.98076
H          H       0.88400   0.12310   0.51924
H          H       0.11600   0.87690   0.76924
H          H       0.88400   0.87690   0.76924
H          H       0.11600   0.12310   0.51924
H          H       0.11600   0.87690   0.98076
H          H       0.88400   0.12310   0.73076
H          H       0.64511   0.60301   0.76253
H          H       0.35489   0.39699   0.51253
H          H       0.35489   0.60301   0.98747
H          H       0.64511   0.39699   0.73747
H          H       0.35489   0.39699   0.73747
H          H       0.64511   0.60301   0.98747
H          H       0.64511   0.39699   0.51253
H          H       0.35489   0.60301   0.76253
H          H       0.14511   0.10301   0.76253
H          H       0.85489   0.89699   0.51253
H          H       0.85489   0.10301   0.98747
H          H       0.14511   0.89699   0.73747
H          H       0.85489   0.89699   0.73747
H          H       0.14511   0.10301   0.98747
H          H       0.14511   0.89699   0.51253
H          H       0.85489   0.10301   0.76253
H          H       0.67130   0.59102   0.82034
H          H       0.32870   0.40898   0.57034
H          H       0.32870   0.59102   0.92966
H          H       0.67130   0.40898   0.67966
H          H       0.32870   0.40898   0.67966
H          H       0.67130   0.59102   0.92966
H          H       0.67130   0.40898   0.57034
H          H       0.32870   0.59102   0.82034
H          H       0.17130   0.09102   0.82034
H          H       0.82870   0.90898   0.57034
H          H       0.82870   0.09102   0.92966
H          H       0.17130   0.90898   0.67966
H          H       0.82870   0.90898   0.67966
H          H       0.17130   0.09102   0.92966
H          H       0.17130   0.90898   0.57034
H          H       0.82870   0.09102   0.82034
H          H       0.87945   0.55163   0.78902
H          H       0.12055   0.44837   0.53902
H          H       0.12055   0.55163   0.96098
H          H       0.87945   0.44837   0.71098
H          H       0.12055   0.44837   0.71098
H          H       0.87945   0.55163   0.96098
H          H       0.87945   0.44837   0.53902
H          H       0.12055   0.55163   0.78902
H          H       0.37945   0.05163   0.78902
H          H       0.62055   0.94837   0.53902
H          H       0.62055   0.05163   0.96098
H          H       0.37945   0.94837   0.71098
H          H       0.62055   0.94837   0.71098
H          H       0.37945   0.05163   0.96098
H          H       0.37945   0.94837   0.53902
H          H       0.62055   0.05163   0.78902
H          H       0.87749   0.53989   0.83262
H          H       0.12251   0.46011   0.58262
H          H       0.12251   0.53989   0.91738
H          H       0.87749   0.46011   0.66738
H          H       0.12251   0.46011   0.66738
H          H       0.87749   0.53989   0.91738
H          H       0.87749   0.46011   0.58262
H          H       0.12251   0.53989   0.83262
H          H       0.37749   0.03989   0.83262
H          H       0.62251   0.96011   0.58262
H          H       0.62251   0.03989   0.91738
H          H       0.37749   0.96011   0.66738
H          H       0.62251   0.96011   0.66738
H          H       0.37749   0.03989   0.91738
H          H       0.37749   0.96011   0.58262
H          H       0.62251   0.03989   0.83262
H          H       0.63077   0.83197   0.91668
H          H       0.36923   0.16803   0.66668
H          H       0.36923   0.83197   0.83332
H          H       0.63077   0.16803   0.58332
H          H       0.36923   0.16803   0.58332
H          H       0.63077   0.83197   0.83332
H          H       0.63077   0.16803   0.66668
H          H       0.36923   0.83197   0.91668
H          H       0.13077   0.33197   0.91668
H          H       0.86923   0.66803   0.66668
H          H       0.86923   0.33197   0.83332
H          H       0.13077   0.66803   0.58332
H          H       0.86923   0.66803   0.58332
H          H       0.13077   0.33197   0.83332
H          H       0.13077   0.66803   0.66668
H          H       0.86923   0.33197   0.91668
H          H       0.75163   0.80712   0.91702
H          H       0.24837   0.19288   0.66702
H          H       0.24837   0.80712   0.83298
H          H       0.75163   0.19288   0.58298
H          H       0.24837   0.19288   0.58298
H          H       0.75163   0.80712   0.83298
H          H       0.75163   0.19288   0.66702
H          H       0.24837   0.80712   0.91702
H          H       0.25163   0.30712   0.91702
H          H       0.74837   0.69288   0.66702
H          H       0.74837   0.30712   0.83298
H          H       0.25163   0.69288   0.58298
H          H       0.74837   0.69288   0.58298
H          H       0.25163   0.30712   0.83298
H          H       0.25163   0.69288   0.66702
H          H       0.74837   0.30712   0.91702
H          H       0.80762   0.76320   0.91691
H          H       0.19238   0.23680   0.66691
H          H       0.19238   0.76320   0.83309
H          H       0.80762   0.23680   0.58309
H          H       0.19238   0.23680   0.58309
H          H       0.80762   0.76320   0.83309
H          H       0.80762   0.23680   0.66691
H          H       0.19238   0.76320   0.91691
H          H       0.30762   0.26320   0.91691
H          H       0.69238   0.73680   0.66691
H          H       0.69238   0.26320   0.83309
H          H       0.30762   0.73680   0.58309
H          H       0.69238   0.73680   0.58309
H          H       0.30762   0.26320   0.83309
H          H       0.30762   0.73680   0.66691
H          H       0.69238   0.26320   0.91691
H          H       0.85661   0.73618   0.91697
H          H       0.14339   0.26382   0.66697
H          H       0.14339   0.73618   0.83303
H          H       0.85661   0.26382   0.58303
H          H       0.14339   0.26382   0.58303
H          H       0.85661   0.73618   0.83303
H          H       0.85661   0.26382   0.66697
H          H       0.14339   0.73618   0.91697
H          H       0.35661   0.23618   0.91697
H          H       0.64339   0.76382   0.66697
H          H       0.64339   0.23618   0.83303
H          H       0.35661   0.76382   0.58303
H          H       0.64339   0.76382   0.58303
H          H       0.35661   0.23618   0.83303
H          H       0.35661   0.76382   0.66697
H          H       0.64339   0.23618   0.91697
H          H       0.88026   0.67289   0.78230
H          H       0.11974   0.32711   0.53230
H          H       0.11974   0.67289   0.96770
H          H       0.88026   0.32711   0.71770
H          H       0.11974   0.32711   0.71770
H          H       0.88026   0.67289   0.96770
H          H       0.88026   0.32711   0.53230
H          H       0.11974   0.67289   0.78230
H          H       0.38026   0.17289   0.78230
H          H       0.61974   0.82711   0.53230
H          H       0.61974   0.17289   0.96770
H          H       0.38026   0.82711   0.71770
H          H       0.61974   0.82711   0.71770
H          H       0.38026   0.17289   0.96770
H          H       0.38026   0.82711   0.53230
H          H       0.61974   0.17289   0.78230
H          H       0.64917   0.68422   0.72516
H          H       0.35083   0.31578   0.97516
H          H       0.35083   0.68422   0.52483
H          H       0.64917   0.31578   0.77484
H          H       0.35083   0.31578   0.77484
H          H       0.64917   0.68422   0.52483
H          H       0.64917   0.31578   0.97516
H          H       0.35083   0.68422   0.72516
H          H       0.14917   0.18422   0.72516
H          H       0.85083   0.81578   0.97516
H          H       0.85083   0.18422   0.52483
H          H       0.14917   0.81578   0.77484
H          H       0.85083   0.81578   0.77484
H          H       0.14917   0.18422   0.52483
H          H       0.14917   0.81578   0.97516
H          H       0.85083   0.18422   0.72516
H          H       0.61658   0.66845   0.68733
H          H       0.38342   0.33155   0.93733
H          H       0.38342   0.66845   0.56267
H          H       0.61658   0.33155   0.81267
H          H       0.38342   0.33155   0.81267
H          H       0.61658   0.66845   0.56267
H          H       0.61658   0.33155   0.93733
H          H       0.38342   0.66845   0.68733
H          H       0.11658   0.16845   0.68733
H          H       0.88342   0.83155   0.93733
H          H       0.88342   0.16845   0.56267
H          H       0.11658   0.83155   0.81267
H          H       0.88342   0.83155   0.81267
H          H       0.11658   0.16845   0.56267
H          H       0.11658   0.83155   0.93733
H          H       0.88342   0.16845   0.68733
H          H       0.87315   0.63322   0.72352
H          H       0.12685   0.36678   0.97352
H          H       0.12685   0.63322   0.52648
H          H       0.87315   0.36678   0.77648
H          H       0.12685   0.36678   0.77648
H          H       0.87315   0.63322   0.52648
H          H       0.87315   0.36678   0.97352
H          H       0.12685   0.63322   0.72352
H          H       0.37315   0.13322   0.72352
H          H       0.62685   0.86678   0.97352
H          H       0.62685   0.13322   0.52648
H          H       0.37315   0.86678   0.77648
H          H       0.62685   0.86678   0.77648
H          H       0.37315   0.13322   0.52648
H          H       0.37315   0.86678   0.97352
H          H       0.62685   0.13322   0.72352
H          H       0.88029   0.64802   0.76335
H          H       0.11971   0.35198   0.51335
H          H       0.11971   0.64802   0.98665
H          H       0.88029   0.35198   0.73665
H          H       0.11971   0.35198   0.73665
H          H       0.88029   0.64802   0.98665
H          H       0.88029   0.35198   0.51335
H          H       0.11971   0.64802   0.76335
H          H       0.38029   0.14802   0.76335
H          H       0.61971   0.85198   0.51335
H          H       0.61971   0.14802   0.98665
H          H       0.38029   0.85198   0.73665
H          H       0.61971   0.85198   0.73665
H          H       0.38029   0.14802   0.98665
H          H       0.38029   0.85198   0.51335
H          H       0.61971   0.14802   0.76335
S          S       0.86010   0.40304   0.87500
S          S       0.13990   0.59696   0.62500
S          S       0.13990   0.40304   0.87500
S          S       0.86010   0.59696   0.62500
S          S       0.36010   0.90304   0.87500
S          S       0.63990   0.09696   0.62500
S          S       0.63990   0.90304   0.87500
S          S       0.36010   0.09696   0.62500
N          N       0.74032   0.77980   0.87500
N          N       0.25968   0.22020   0.62500
N          N       0.25968   0.77980   0.87500
N          N       0.74032   0.22020   0.62500
N          N       0.24032   0.27980   0.87500
N          N       0.75968   0.72020   0.62500
N          N       0.75968   0.27980   0.87500
N          N       0.24032   0.72020   0.62500
N          N       0.78651   0.71689   0.87500
N          N       0.21349   0.28311   0.62500
N          N       0.21349   0.71689   0.87500
N          N       0.78651   0.28311   0.62500
N          N       0.28651   0.21689   0.87500
N          N       0.71349   0.78311   0.62500
N          N       0.71349   0.21689   0.87500
N          N       0.28651   0.78311   0.62500
C          C       0.77204   0.80610   0.87500
C          C       0.22796   0.19390   0.62500
C          C       0.22796   0.80610   0.87500
C          C       0.77204   0.19390   0.62500
C          C       0.27204   0.30610   0.87500
C          C       0.72796   0.69390   0.62500
C          C       0.72796   0.30610   0.87500
C          C       0.27204   0.69390   0.62500
C          C       0.65064   0.83520   0.87500
C          C       0.34936   0.16480   0.62500
C          C       0.34936   0.83520   0.87500
C          C       0.65064   0.16480   0.62500
C          C       0.15064   0.33520   0.87500
C          C       0.84936   0.66480   0.62500
C          C       0.84936   0.33520   0.87500
C          C       0.15064   0.66480   0.62500
C          C       0.83092   0.79092   0.87500
C          C       0.16908   0.20908   0.62500
C          C       0.16908   0.79092   0.87500
C          C       0.83092   0.20908   0.62500
C          C       0.33092   0.29092   0.87500
C          C       0.66908   0.70908   0.62500
C          C       0.66908   0.29092   0.87500
C          C       0.33092   0.70908   0.62500
C          C       0.82023   0.73316   0.87500
C          C       0.17977   0.26684   0.62500
C          C       0.17977   0.73316   0.87500
C          C       0.82023   0.26684   0.62500
C          C       0.32023   0.23316   0.87500
C          C       0.67977   0.76684   0.62500
C          C       0.67977   0.23316   0.87500
C          C       0.32023   0.76684   0.62500
C          C       0.79125   0.76469   0.87500
C          C       0.20875   0.23531   0.62500
C          C       0.20875   0.76469   0.87500
C          C       0.79125   0.23531   0.62500
C          C       0.29125   0.26469   0.87500
C          C       0.70875   0.73531   0.62500
C          C       0.70875   0.26469   0.87500
C          C       0.29125   0.73531   0.62500
C          C       0.92236   0.41836   0.87500
C          C       0.07764   0.58164   0.62500
C          C       0.07764   0.41836   0.87500
C          C       0.92236   0.58164   0.62500
C          C       0.42236   0.91836   0.87500
C          C       0.57764   0.08164   0.62500
C          C       0.57764   0.91836   0.87500
C          C       0.42236   0.08164   0.62500
S          S       0.61475   0.86671   0.87500
S          S       0.38525   0.13329   0.62500
S          S       0.38525   0.86671   0.87500
S          S       0.61475   0.13329   0.62500
S          S       0.11475   0.36671   0.87500
S          S       0.88525   0.63329   0.62500
S          S       0.88525   0.36671   0.87500
S          S       0.11475   0.63329   0.62500
N          N       0.75540   0.48639   0.87500
N          N       0.24460   0.51361   0.62500
N          N       0.24460   0.48639   0.87500
N          N       0.75540   0.51361   0.62500
N          N       0.25540   0.98639   0.87500
N          N       0.74460   0.01361   0.62500
N          N       0.74460   0.98639   0.87500
N          N       0.25540   0.01361   0.62500
N          N       0.71365   0.54956   0.87500
N          N       0.28635   0.45044   0.62500
N          N       0.28635   0.54956   0.87500
N          N       0.71365   0.45044   0.62500
N          N       0.21365   0.04956   0.87500
N          N       0.78635   0.95044   0.62500
N          N       0.78635   0.04956   0.87500
N          N       0.21365   0.95044   0.62500
C          C       0.70248   0.46032   0.87500
C          C       0.29752   0.53968   0.62500
C          C       0.29752   0.46032   0.87500
C          C       0.70248   0.53968   0.62500
C          C       0.20248   0.96032   0.87500
C          C       0.79752   0.03968   0.62500
C          C       0.79752   0.96032   0.87500
C          C       0.20248   0.03968   0.62500
C          C       0.83267   0.43193   0.87500
C          C       0.16733   0.56807   0.62500
C          C       0.16733   0.43193   0.87500
C          C       0.83267   0.56807   0.62500
C          C       0.33267   0.93193   0.87500
C          C       0.66733   0.06807   0.62500
C          C       0.66733   0.93193   0.87500
C          C       0.33267   0.06807   0.62500
C          C       0.65735   0.47597   0.87500
C          C       0.34265   0.52403   0.62500
C          C       0.34265   0.47597   0.87500
C          C       0.65735   0.52403   0.62500
C          C       0.15735   0.97597   0.87500
C          C       0.84265   0.02403   0.62500
C          C       0.84265   0.97597   0.87500
C          C       0.15735   0.02403   0.62500
C          C       0.68113   0.53327   0.87500
C          C       0.31887   0.46673   0.62500
C          C       0.31887   0.53327   0.87500
C          C       0.68113   0.46673   0.62500
C          C       0.18113   0.03327   0.87500
C          C       0.81887   0.96673   0.62500
C          C       0.81887   0.03327   0.87500
C          C       0.18113   0.96673   0.62500
C          C       0.71196   0.50176   0.87500
C          C       0.28804   0.49824   0.62500
C          C       0.28804   0.50176   0.87500
C          C       0.71196   0.49824   0.62500
C          C       0.21196   0.00176   0.87500
C          C       0.78804   0.99824   0.62500
C          C       0.78804   0.00176   0.87500
C          C       0.21196   0.99824   0.62500
C          C       0.57081   0.85015   0.87500
C          C       0.42919   0.14985   0.62500
C          C       0.42919   0.85015   0.87500
C          C       0.57081   0.14985   0.62500
C          C       0.07081   0.35015   0.87500
C          C       0.92919   0.64985   0.62500
C          C       0.92919   0.35015   0.87500
C          C       0.07081   0.64985   0.62500
Ni         Ni      0.50000   0.88533   0.87500
Ni         Ni      0.50000   0.11467   0.62500
Ni         Ni      0.00000   0.38533   0.87500
Ni         Ni      0.00000   0.61467   0.62500
C          C       0.21367   0.71893   0.92861
C          C       0.78633   0.28107   0.67861
C          C       0.78633   0.71893   0.82139
C          C       0.21367   0.28107   0.57139
C          C       0.78633   0.28107   0.57139
C          C       0.21367   0.71893   0.82139
C          C       0.21367   0.28107   0.67861
C          C       0.78633   0.71893   0.92861
C          C       0.71367   0.21893   0.92861
C          C       0.28633   0.78107   0.67861
C          C       0.28633   0.21893   0.82139
C          C       0.71367   0.78107   0.57139
C          C       0.28633   0.78107   0.57139
C          C       0.71367   0.21893   0.82139
C          C       0.71367   0.78107   0.67861
C          C       0.28633   0.21893   0.92861
Ni         Ni      0.64165   0.63090   0.62500
Ni         Ni      0.35835   0.36910   0.87500
Ni         Ni      0.35835   0.63090   0.62500
Ni         Ni      0.64165   0.36910   0.87500
Ni         Ni      0.14165   0.13090   0.62500
Ni         Ni      0.85835   0.86910   0.87500
Ni         Ni      0.85835   0.13090   0.62500
Ni         Ni      0.14165   0.86910   0.87500
H          H       0.64009   0.53073   0.83339
H          H       0.35991   0.46927   0.58339
H          H       0.35991   0.53073   0.91661
H          H       0.64009   0.46927   0.66661
H          H       0.35991   0.46927   0.66661
H          H       0.64009   0.53073   0.91661
H          H       0.64009   0.46927   0.58339
H          H       0.35991   0.53073   0.83339
H          H       0.14009   0.03073   0.83339
H          H       0.85991   0.96927   0.58339
H          H       0.85991   0.03073   0.91661
H          H       0.14009   0.96927   0.66661
H          H       0.85991   0.96927   0.66661
H          H       0.14009   0.03073   0.91661
H          H       0.14009   0.96927   0.58339
H          H       0.85991   0.03073   0.83339
H          H       0.16131   0.72985   0.81751
H          H       0.83869   0.27015   0.56751
H          H       0.83869   0.72985   0.93249
H          H       0.16131   0.27015   0.68249
H          H       0.83869   0.27015   0.68249
H          H       0.16131   0.72985   0.93249
H          H       0.16131   0.27015   0.56751
H          H       0.83869   0.72985   0.81751
H          H       0.66131   0.22985   0.81751
H          H       0.33869   0.77015   0.56751
H          H       0.33869   0.22985   0.93249
H          H       0.66131   0.77015   0.68249
H          H       0.33869   0.77015   0.68249
H          H       0.66131   0.22985   0.93249
H          H       0.66131   0.77015   0.56751
H          H       0.33869   0.22985   0.81751
H          H       0.94925   0.78895   0.87500
H          H       0.05075   0.21105   0.62500
H          H       0.05075   0.78895   0.87500
H          H       0.94925   0.21105   0.62500
H          H       0.44925   0.28895   0.87500
H          H       0.55075   0.71105   0.62500
H          H       0.55075   0.28895   0.87500
H          H       0.44925   0.71105   0.62500
H          H       0.54096   0.47893   0.87500
H          H       0.45904   0.52107   0.62500
H          H       0.45904   0.47893   0.87500
H          H       0.54096   0.52107   0.62500
H          H       0.04096   0.97893   0.87500
H          H       0.95904   0.02107   0.62500
H          H       0.95904   0.97893   0.87500
H          H       0.04096   0.02107   0.62500
C          C       0.70295   0.57179   0.90045
C          C       0.29705   0.42821   0.65045
C          C       0.29705   0.57179   0.84955
C          C       0.70295   0.42821   0.59955
C          C       0.29705   0.42821   0.59955
C          C       0.70295   0.57179   0.84955
C          C       0.70295   0.42821   0.65045
C          C       0.29705   0.57179   0.90045
C          C       0.20295   0.07179   0.90045
C          C       0.79705   0.92821   0.65045
C          C       0.79705   0.07179   0.84955
C          C       0.20295   0.92821   0.59955
C          C       0.79705   0.92821   0.59955
C          C       0.20295   0.07179   0.84955
C          C       0.20295   0.92821   0.65045
C          C       0.79705   0.07179   0.90045
H          H       0.64847   0.57752   0.86580
H          H       0.35153   0.42248   0.61580
H          H       0.35153   0.57752   0.88420
H          H       0.64847   0.42248   0.63420
H          H       0.35153   0.42248   0.63420
H          H       0.64847   0.57752   0.88420
H          H       0.64847   0.42248   0.61580
H          H       0.35153   0.57752   0.86580
H          H       0.14847   0.07752   0.86580
H          H       0.85153   0.92248   0.61580
H          H       0.85153   0.07752   0.88420
H          H       0.14847   0.92248   0.63420
H          H       0.85153   0.92248   0.63420
H          H       0.14847   0.07752   0.88420
H          H       0.14847   0.92248   0.61580
H          H       0.85153   0.07752   0.86580
