data_crystal

_cell_length_a    52.24480
_cell_length_b    23.58960
_cell_length_c    7.33680
_cell_angle_alpha 90.02330
_cell_angle_beta  90.01040
_cell_angle_gamma 91.33880

_space_group_name_Hall 'P 1'
_space_group_name_H-M_alt 'P 1'

loop_
_symmetry_equiv_pos_as_xyz
 'x,y,z'

loop_
_atom_site_label
_atom_site_type_symbol
_atom_site_fract_x
_atom_site_fract_y
_atom_site_fract_z
C          C       0.09356   0.88981   0.10703
C          C       0.08402   0.84880   0.19744
C          C       0.09621   0.80181   0.19585
C          C       0.11941   0.79346   0.11157
C          C       0.13031   0.83474   0.02936
C          C       0.11753   0.88205   0.02697
N          N       0.18133   0.47972   0.11962
C          C       0.19371   0.43431   0.13879
N          N       0.21940   0.43260   0.14385
C          C       0.23316   0.47389   0.12960
N          N       0.22069   0.51847   0.10984
C          C       0.19487   0.52229   0.10519
C          C       0.18240   0.57347   0.08500
C          C       0.18041   0.38564   0.15639
C          C       0.26154   0.46949   0.13740
C          C       0.27357   0.42318   0.17183
C          C       0.29994   0.41778   0.17925
C          C       0.31541   0.45832   0.15240
C          C       0.30362   0.50491   0.11816
C          C       0.27700   0.51042   0.11101
C          C       0.19662   0.61265   0.01951
C          C       0.18645   0.66133   0.00746
C          C       0.16166   0.67352   0.06212
C          C       0.14709   0.63451   0.12647
C          C       0.15727   0.58514   0.13666
C          C       0.15564   0.37793   0.09603
C          C       0.14511   0.33014   0.10337
C          C       0.15900   0.28894   0.17325
C          C       0.18340   0.29730   0.23624
C          C       0.19387   0.34426   0.22745
C          C       0.15216   0.72694   0.04864
C          C       0.34347   0.44964   0.16070
C          C       0.14933   0.23695   0.18514
N          N       0.13052   0.74305   0.11367
C          C       0.09237   0.08052   0.11606
C          C       0.11630   0.08557   0.19562
C          C       0.12870   0.13149   0.19428
C          C       0.11741   0.17420   0.11397
C          C       0.09422   0.16853   0.02992
C          C       0.08239   0.12280   0.02731
N          N       0.12825   0.22334   0.11279
C          C       0.46875   0.45120   0.09873
C          C       0.48874   0.48483   0.11928
C          C       0.51392   0.47040   0.06877
C          C       0.51923   0.42208   0.00278
C          C       0.49986   0.38700   0.49971
C          C       0.47510   0.40276   0.04346
C          C       0.48461   0.53161   0.19568
C          C       0.50416   0.56442   0.21341
C          C       0.52863   0.55278   0.15009
C          C       0.53394   0.50441   0.08458
C          C       0.55914   0.48990   0.03473
C          C       0.56326   0.44320   0.45787
C          C       0.54369   0.41054   0.43893
C          C       0.54806   0.58777   0.15340
C          C       0.57285   0.57184   0.11095
C          C       0.57917   0.52335   0.05627
C          C       0.50470   0.33289   0.46288
C          C       0.44098   0.46368   0.13060
C          C       0.60697   0.51060   0.02653
C          C       0.54327   0.64195   0.18882
C          C       0.61890   0.46784   0.09942
C          C       0.64540   0.46085   0.09549
C          C       0.66088   0.49675   0.02247
C          C       0.64894   0.53842   0.44218
C          C       0.62255   0.54505   0.44422
C          C       0.52582   0.30705   0.03524
C          C       0.52965   0.25620   0.00753
C          C       0.51185   0.22954   0.41453
C          C       0.49036   0.25437   0.34683
C          C       0.48694   0.30556   0.36902
C          C       0.42883   0.50636   0.05879
C          C       0.40234   0.51330   0.06624
C          C       0.38708   0.47739   0.14159
C          C       0.39925   0.43561   0.21950
C          C       0.42563   0.42905   0.21407
C          C       0.52229   0.66778   0.11472
C          C       0.51866   0.71879   0.13947
C          C       0.53651   0.74555   0.23157
C          C       0.55782   0.72066   0.30169
C          C       0.56104   0.66936   0.28226
N          N       0.35971   0.48436   0.13579
N          N       0.53304   0.79794   0.25347
N          N       0.51560   0.17733   0.38901
C          C       0.07780   0.03213   0.12263
C          C       0.05076   0.03197   0.13664
C          C       0.03751   0.98762   0.11160
C          C       0.05134   0.94210   0.08625
C          C       0.07841   0.93957   0.09939
C          C       0.09100   0.98528   0.11063
C          C       0.03636   0.07481   0.18049
C          C       0.01018   0.07596   0.18047
C          C       0.99631   0.03430   0.13726
C          C       0.01014   0.98877   0.11211
C          C       0.99690   0.94440   0.08726
C          C       0.01130   0.90156   0.04344
C          C       0.03747   0.90044   0.04314
C          C       0.96922   0.03677   0.12379
C          C       0.95665   0.99102   0.11278
C          C       0.96986   0.94417   0.10129
C          C       0.95532   0.89571   0.10790
C          C       0.93138   0.89060   0.02841
C          C       0.91905   0.84461   0.02914
C          C       0.93040   0.80184   0.10869
C          C       0.95358   0.80755   0.19287
C          C       0.96533   0.85339   0.19632
N          N       0.86638   0.49626   0.09359
C          C       0.85407   0.54159   0.07052
N          N       0.82839   0.54314   0.05908
C          C       0.81463   0.50177   0.07083
N          N       0.82704   0.45732   0.09465
C          C       0.85281   0.45365   0.10568
C          C       0.86519   0.40256   0.12972
C          C       0.86739   0.59036   0.05629
C          C       0.78631   0.50588   0.05568
C          C       0.77435   0.55189   0.01573
C          C       0.74804   0.55691   0.00089
C          C       0.73254   0.51631   0.02582
C          C       0.74426   0.47002   0.06567
C          C       0.77083   0.46487   0.08020
C          C       0.85080   0.36361   0.19517
C          C       0.86089   0.31489   0.20925
C          C       0.88575   0.30250   0.15668
C          C       0.90049   0.34132   0.09302
C          C       0.89040   0.39069   0.08086
C          C       0.89217   0.59780   0.11749
C          C       0.90269   0.64565   0.11343
C          C       0.88880   0.68720   0.04618
C          C       0.86446   0.67908   0.48162
C          C       0.85401   0.63206   0.48691
C          C       0.89520   0.24910   0.17139
C          C       0.70453   0.52468   0.01005
C          C       0.89832   0.73937   0.03871
N          N       0.91970   0.75255   0.10777
N          N       0.68823   0.48999   0.03387
C          C       0.95404   0.08648   0.11550
C          C       0.96361   0.12754   0.02558
C          C       0.95134   0.17444   0.02641
C          C       0.92804   0.18264   0.10949
C          C       0.91710   0.14130   0.19095
C          C       0.92996   0.09408   0.19407
N          N       0.91686   0.23296   0.10675
H          H       0.06657   0.85252   0.26803
H          H       0.08747   0.77152   0.26328
H          H       0.14823   0.83067   0.46235
H          H       0.12605   0.91202   0.45665
H          H       0.26260   0.39067   0.19374
H          H       0.30831   0.38139   0.20613
H          H       0.31492   0.53696   0.09654
H          H       0.26854   0.54670   0.08408
H          H       0.21590   0.60575   0.47665
H          H       0.19825   0.68989   0.45603
H          H       0.12790   0.64215   0.16987
H          H       0.14568   0.55640   0.18910
H          H       0.14468   0.40842   0.03873
H          H       0.12625   0.32541   0.05314
H          H       0.19469   0.26699   0.29202
H          H       0.21285   0.34801   0.27724
H          H       0.16432   0.75275   0.48464
H          H       0.35016   0.41192   0.18376
H          H       0.16094   0.20988   0.25558
H          H       0.12515   0.05450   0.26444
H          H       0.14672   0.13326   0.25972
H          H       0.08522   0.19995   0.46373
H          H       0.06489   0.12111   0.45713
H          H       0.46030   0.37628   0.03633
H          H       0.46632   0.54302   0.24672
H          H       0.49982   0.59891   0.28031
H          H       0.58157   0.43175   0.40743
H          H       0.54801   0.37620   0.37102
H          H       0.58769   0.59820   0.11860
H          H       0.60790   0.44068   0.16627
H          H       0.65396   0.42820   0.15665
H          H       0.65972   0.56611   0.37639
H          H       0.61430   0.57797   0.38316
H          H       0.53915   0.32583   0.11691
H          H       0.54616   0.23733   0.06301
H          H       0.47642   0.23420   0.27466
H          H       0.47039   0.32368   0.31166
H          H       0.43964   0.53350   0.49018
H          H       0.39360   0.54593   0.00609
H          H       0.38865   0.40780   0.28619
H          H       0.43404   0.39605   0.27355
H          H       0.50894   0.64887   0.03353
H          H       0.50228   0.73769   0.08220
H          H       0.57178   0.74090   0.37343
H          H       0.57748   0.65122   0.34123
H          H       0.51718   0.81677   0.20151
H          H       0.54624   0.81825   0.32219
H          H       0.50241   0.15706   0.31994
H          H       0.53167   0.15862   0.43818
H          H       0.11141   0.98436   0.11025
H          H       0.04492   0.10878   0.21646
H          H       0.00120   0.11077   0.21575
H          H       0.00275   0.86757   0.00757
H          H       0.04644   0.86564   0.00777
H          H       0.93625   0.99189   0.11294
H          H       0.92246   0.92168   0.46003
H          H       0.90105   0.84282   0.46337
H          H       0.96264   0.77609   0.25846
H          H       0.98282   0.85509   0.26667
H          H       0.78535   0.58443   0.49526
H          H       0.73972   0.59308   0.46984
H          H       0.73294   0.43792   0.08605
H          H       0.77924   0.42883   0.11152
H          H       0.83145   0.37072   0.23626
H          H       0.84897   0.28648   0.26042
H          H       0.91976   0.33353   0.05171
H          H       0.90212   0.41928   0.02893
H          H       0.90316   0.56703   0.17264
H          H       0.92155   0.65016   0.16427
H          H       0.85320   0.70962   0.42714
H          H       0.83509   0.62857   0.43580
H          H       0.88303   0.22337   0.23568
H          H       0.69790   0.56221   0.48290
H          H       0.88631   0.76699   0.47426
H          H       0.98115   0.12396   0.45591
H          H       0.96008   0.20480   0.45945
H          H       0.89904   0.14523   0.25634
C          C       0.09356   0.88981   0.60703
C          C       0.08402   0.84880   0.69744
C          C       0.09621   0.80181   0.69585
C          C       0.11941   0.79346   0.61157
C          C       0.13031   0.83474   0.52936
C          C       0.11753   0.88205   0.52697
N          N       0.18133   0.47972   0.61962
C          C       0.19371   0.43431   0.63878
N          N       0.21940   0.43260   0.64385
C          C       0.23316   0.47389   0.62960
N          N       0.22069   0.51847   0.60984
C          C       0.19487   0.52229   0.60519
C          C       0.18240   0.57347   0.58500
C          C       0.18041   0.38564   0.65639
C          C       0.26154   0.46949   0.63740
C          C       0.27357   0.42318   0.67183
C          C       0.29994   0.41778   0.67925
C          C       0.31541   0.45832   0.65240
C          C       0.30362   0.50491   0.61816
C          C       0.27700   0.51042   0.61101
C          C       0.19662   0.61265   0.51951
C          C       0.18645   0.66133   0.50746
C          C       0.16166   0.67352   0.56212
C          C       0.14709   0.63451   0.62647
C          C       0.15727   0.58514   0.63666
C          C       0.15564   0.37793   0.59603
C          C       0.14511   0.33014   0.60337
C          C       0.15900   0.28894   0.67325
C          C       0.18340   0.29730   0.73624
C          C       0.19387   0.34426   0.72745
C          C       0.15216   0.72694   0.54864
C          C       0.34347   0.44964   0.66070
C          C       0.14933   0.23695   0.68515
N          N       0.13052   0.74305   0.61367
C          C       0.09237   0.08052   0.61606
C          C       0.11630   0.08557   0.69562
C          C       0.12870   0.13149   0.69428
C          C       0.11741   0.17420   0.61397
C          C       0.09422   0.16853   0.52992
C          C       0.08239   0.12280   0.52731
N          N       0.12825   0.22334   0.61279
C          C       0.46875   0.45120   0.59873
C          C       0.48874   0.48483   0.61928
C          C       0.51392   0.47040   0.56877
C          C       0.51923   0.42208   0.50278
C          C       0.49986   0.38700   0.99971
C          C       0.47510   0.40276   0.54346
C          C       0.48461   0.53161   0.69568
C          C       0.50416   0.56442   0.71341
C          C       0.52863   0.55278   0.65010
C          C       0.53394   0.50441   0.58458
C          C       0.55914   0.48990   0.53473
C          C       0.56326   0.44320   0.95787
C          C       0.54369   0.41054   0.93893
C          C       0.54806   0.58777   0.65340
C          C       0.57285   0.57184   0.61095
C          C       0.57917   0.52335   0.55627
C          C       0.50470   0.33289   0.96288
C          C       0.44098   0.46368   0.63060
C          C       0.60697   0.51060   0.52653
C          C       0.54327   0.64195   0.68882
C          C       0.61890   0.46784   0.59942
C          C       0.64540   0.46085   0.59549
C          C       0.66088   0.49675   0.52247
C          C       0.64894   0.53842   0.94219
C          C       0.62255   0.54505   0.94423
C          C       0.52582   0.30705   0.53524
C          C       0.52965   0.25620   0.50753
C          C       0.51185   0.22954   0.91453
C          C       0.49036   0.25437   0.84683
C          C       0.48694   0.30556   0.86902
C          C       0.42883   0.50636   0.55879
C          C       0.40234   0.51330   0.56624
C          C       0.38708   0.47739   0.64159
C          C       0.39925   0.43561   0.71950
C          C       0.42563   0.42905   0.71407
C          C       0.52229   0.66778   0.61472
C          C       0.51866   0.71879   0.63947
C          C       0.53651   0.74555   0.73157
C          C       0.55782   0.72066   0.80169
C          C       0.56104   0.66936   0.78226
N          N       0.35971   0.48436   0.63579
N          N       0.53304   0.79794   0.75347
N          N       0.51560   0.17733   0.88901
C          C       0.07780   0.03213   0.62263
C          C       0.05076   0.03197   0.63664
C          C       0.03751   0.98762   0.61160
C          C       0.05134   0.94210   0.58625
C          C       0.07841   0.93957   0.59939
C          C       0.09100   0.98528   0.61063
C          C       0.03636   0.07481   0.68049
C          C       0.01018   0.07596   0.68047
C          C       0.99631   0.03430   0.63726
C          C       0.01014   0.98877   0.61211
C          C       0.99690   0.94440   0.58726
C          C       0.01130   0.90156   0.54344
C          C       0.03747   0.90044   0.54314
C          C       0.96922   0.03677   0.62379
C          C       0.95665   0.99102   0.61278
C          C       0.96986   0.94417   0.60129
C          C       0.95532   0.89571   0.60790
C          C       0.93138   0.89060   0.52841
C          C       0.91905   0.84461   0.52914
C          C       0.93040   0.80184   0.60869
C          C       0.95358   0.80755   0.69287
C          C       0.96533   0.85339   0.69632
N          N       0.86638   0.49626   0.59359
C          C       0.85407   0.54159   0.57052
N          N       0.82839   0.54314   0.55908
C          C       0.81463   0.50177   0.57083
N          N       0.82704   0.45732   0.59465
C          C       0.85281   0.45365   0.60568
C          C       0.86519   0.40256   0.62972
C          C       0.86739   0.59036   0.55629
C          C       0.78631   0.50588   0.55568
C          C       0.77435   0.55189   0.51573
C          C       0.74804   0.55691   0.50089
C          C       0.73254   0.51631   0.52582
C          C       0.74426   0.47002   0.56567
C          C       0.77083   0.46487   0.58020
C          C       0.85080   0.36361   0.69517
C          C       0.86089   0.31489   0.70925
C          C       0.88575   0.30250   0.65668
C          C       0.90049   0.34132   0.59302
C          C       0.89040   0.39069   0.58086
C          C       0.89217   0.59780   0.61749
C          C       0.90269   0.64565   0.61343
C          C       0.88880   0.68720   0.54618
C          C       0.86446   0.67908   0.98162
C          C       0.85401   0.63206   0.98691
C          C       0.89520   0.24910   0.67139
C          C       0.70453   0.52468   0.51005
C          C       0.89832   0.73937   0.53871
N          N       0.91970   0.75255   0.60777
N          N       0.68823   0.48999   0.53387
C          C       0.95404   0.08648   0.61550
C          C       0.96361   0.12754   0.52558
C          C       0.95134   0.17444   0.52641
C          C       0.92804   0.18264   0.60949
C          C       0.91710   0.14130   0.69095
C          C       0.92996   0.09408   0.69407
N          N       0.91686   0.23296   0.60675
H          H       0.06657   0.85252   0.76803
H          H       0.08747   0.77152   0.76328
H          H       0.14823   0.83067   0.96235
H          H       0.12605   0.91202   0.95665
H          H       0.26260   0.39067   0.69374
H          H       0.30831   0.38139   0.70613
H          H       0.31492   0.53696   0.59654
H          H       0.26854   0.54670   0.58408
H          H       0.21590   0.60575   0.97665
H          H       0.19825   0.68989   0.95602
H          H       0.12790   0.64215   0.66987
H          H       0.14568   0.55640   0.68910
H          H       0.14468   0.40842   0.53873
H          H       0.12625   0.32541   0.55314
H          H       0.19469   0.26699   0.79201
H          H       0.21285   0.34801   0.77724
H          H       0.16432   0.75275   0.98464
H          H       0.35016   0.41192   0.68376
H          H       0.16094   0.20988   0.75558
H          H       0.12515   0.05450   0.76444
H          H       0.14672   0.13326   0.75972
H          H       0.08522   0.19995   0.96373
H          H       0.06489   0.12111   0.95713
H          H       0.46030   0.37628   0.53633
H          H       0.46632   0.54302   0.74672
H          H       0.49982   0.59891   0.78031
H          H       0.58157   0.43175   0.90743
H          H       0.54801   0.37620   0.87102
H          H       0.58769   0.59820   0.61860
H          H       0.60790   0.44068   0.66627
H          H       0.65396   0.42820   0.65665
H          H       0.65972   0.56611   0.87639
H          H       0.61430   0.57797   0.88316
H          H       0.53915   0.32583   0.61691
H          H       0.54616   0.23733   0.56301
H          H       0.47642   0.23420   0.77466
H          H       0.47039   0.32368   0.81166
H          H       0.43964   0.53350   0.99018
H          H       0.39360   0.54593   0.50609
H          H       0.38865   0.40780   0.78619
H          H       0.43404   0.39605   0.77355
H          H       0.50894   0.64887   0.53353
H          H       0.50228   0.73769   0.58220
H          H       0.57178   0.74090   0.87343
H          H       0.57748   0.65122   0.84123
H          H       0.51718   0.81677   0.70151
H          H       0.54624   0.81825   0.82219
H          H       0.50241   0.15706   0.81995
H          H       0.53167   0.15862   0.93818
H          H       0.11141   0.98436   0.61025
H          H       0.04492   0.10878   0.71646
H          H       0.00120   0.11077   0.71575
H          H       0.00275   0.86757   0.50757
H          H       0.04644   0.86564   0.50777
H          H       0.93625   0.99189   0.61294
H          H       0.92246   0.92168   0.96003
H          H       0.90105   0.84282   0.96336
H          H       0.96264   0.77609   0.75846
H          H       0.98282   0.85509   0.76667
H          H       0.78535   0.58443   0.99526
H          H       0.73972   0.59308   0.96984
H          H       0.73294   0.43792   0.58605
H          H       0.77924   0.42883   0.61152
H          H       0.83145   0.37072   0.73626
H          H       0.84897   0.28648   0.76042
H          H       0.91976   0.33353   0.55171
H          H       0.90212   0.41928   0.52893
H          H       0.90316   0.56703   0.67264
H          H       0.92155   0.65016   0.66427
H          H       0.85320   0.70962   0.92714
H          H       0.83509   0.62857   0.93580
H          H       0.88303   0.22337   0.73568
H          H       0.69790   0.56221   0.98289
H          H       0.88631   0.76699   0.97426
H          H       0.98115   0.12396   0.95591
H          H       0.96008   0.20480   0.95945
H          H       0.89904   0.14523   0.75634
