data_crystal

_cell_length_a    58.22000
_cell_length_b    57.87000
_cell_length_c    15.21000
_cell_angle_alpha 90.00000
_cell_angle_beta  90.00000
_cell_angle_gamma 90.00000

_space_group_name_Hall 'P 1'
_space_group_name_H-M_alt 'P 1'

loop_
_symmetry_equiv_pos_as_xyz
 'x,y,z'

loop_
_atom_site_label
_atom_site_type_symbol
_atom_site_fract_x
_atom_site_fract_y
_atom_site_fract_z
C          C       0.31607   0.66706   0.61186
C          C       0.68393   0.33294   0.61186
C          C       0.68393   0.66706   0.38814
C          C       0.31607   0.33294   0.38814
C          C       0.93393   0.58294   0.63814
C          C       0.56607   0.91706   0.63814
C          C       0.56607   0.58294   0.86186
C          C       0.93393   0.91706   0.86186
C          C       0.31607   0.16706   0.11186
C          C       0.68393   0.83294   0.11186
C          C       0.68393   0.16706   0.88814
C          C       0.31607   0.83294   0.88814
C          C       0.93393   0.08294   0.13814
C          C       0.56607   0.41706   0.13814
C          C       0.56607   0.08294   0.36186
C          C       0.93393   0.41706   0.36186
C          C       0.81607   0.66706   0.11186
C          C       0.18393   0.33294   0.11186
C          C       0.18393   0.66706   0.88814
C          C       0.81607   0.33294   0.88814
C          C       0.43393   0.58294   0.13814
C          C       0.06607   0.91706   0.13814
C          C       0.06607   0.58294   0.36186
C          C       0.43393   0.91706   0.36186
C          C       0.81607   0.16706   0.61186
C          C       0.18393   0.83294   0.61186
C          C       0.18393   0.16706   0.38814
C          C       0.81607   0.83294   0.38814
C          C       0.43393   0.08294   0.63814
C          C       0.06607   0.41706   0.63814
C          C       0.06607   0.08294   0.86186
C          C       0.43393   0.41706   0.86186
C          C       0.30716   0.65308   0.67904
C          C       0.69284   0.34692   0.67904
C          C       0.69284   0.65308   0.32096
C          C       0.30716   0.34692   0.32096
C          C       0.94284   0.59692   0.57096
C          C       0.55716   0.90308   0.57096
C          C       0.55716   0.59692   0.92904
C          C       0.94284   0.90308   0.92904
C          C       0.30716   0.15308   0.17904
C          C       0.69284   0.84692   0.17904
C          C       0.69284   0.15308   0.82096
C          C       0.30716   0.84692   0.82096
C          C       0.94284   0.09692   0.07096
C          C       0.55716   0.40308   0.07096
C          C       0.55716   0.09692   0.42904
C          C       0.94284   0.40308   0.42904
C          C       0.80716   0.65308   0.17904
C          C       0.19284   0.34692   0.17904
C          C       0.19284   0.65308   0.82096
C          C       0.80716   0.34692   0.82096
C          C       0.44284   0.59692   0.07096
C          C       0.05716   0.90308   0.07096
C          C       0.05716   0.59692   0.42904
C          C       0.44284   0.90308   0.42904
C          C       0.80716   0.15308   0.67904
C          C       0.19284   0.84692   0.67904
C          C       0.19284   0.15308   0.32096
C          C       0.80716   0.84692   0.32096
C          C       0.44284   0.09692   0.57096
C          C       0.05716   0.40308   0.57096
C          C       0.05716   0.09692   0.92904
C          C       0.44284   0.40308   0.92904
C          C       0.32167   0.64208   0.73973
C          C       0.67833   0.35792   0.73973
C          C       0.67833   0.64208   0.26027
C          C       0.32167   0.35792   0.26027
C          C       0.92833   0.60792   0.51027
C          C       0.57167   0.89208   0.51027
C          C       0.57167   0.60792   0.98973
C          C       0.92833   0.89208   0.98973
C          C       0.32167   0.14208   0.23973
C          C       0.67833   0.85792   0.23973
C          C       0.67833   0.14208   0.76027
C          C       0.32167   0.85792   0.76027
C          C       0.92833   0.10792   0.01027
C          C       0.57167   0.39208   0.01027
C          C       0.57167   0.10792   0.48973
C          C       0.92833   0.39208   0.48973
C          C       0.82167   0.64208   0.23973
C          C       0.17833   0.35792   0.23973
C          C       0.17833   0.64208   0.76027
C          C       0.82167   0.35792   0.76027
C          C       0.42833   0.60792   0.01027
C          C       0.07167   0.89208   0.01027
C          C       0.07167   0.60792   0.48973
C          C       0.42833   0.89208   0.48973
C          C       0.82167   0.14208   0.73973
C          C       0.17833   0.85792   0.73973
C          C       0.17833   0.14208   0.26027
C          C       0.82167   0.85792   0.26027
C          C       0.42833   0.10792   0.51027
C          C       0.07167   0.39208   0.51027
C          C       0.07167   0.10792   0.98973
C          C       0.42833   0.39208   0.98973
C          C       0.34571   0.64465   0.73604
C          C       0.65429   0.35535   0.73604
C          C       0.65429   0.64465   0.26396
C          C       0.34571   0.35535   0.26396
C          C       0.90429   0.60535   0.51396
C          C       0.59571   0.89465   0.51396
C          C       0.59571   0.60535   0.98604
C          C       0.90429   0.89465   0.98604
C          C       0.34571   0.14465   0.23604
C          C       0.65429   0.85535   0.23604
C          C       0.65429   0.14465   0.76396
C          C       0.34571   0.85535   0.76396
C          C       0.90429   0.10535   0.01396
C          C       0.59571   0.39465   0.01396
C          C       0.59571   0.10535   0.48604
C          C       0.90429   0.39465   0.48604
C          C       0.84571   0.64465   0.23604
C          C       0.15429   0.35535   0.23604
C          C       0.15429   0.64465   0.76396
C          C       0.84571   0.35535   0.76396
C          C       0.40429   0.60535   0.01396
C          C       0.09571   0.89465   0.01396
C          C       0.09571   0.60535   0.48604
C          C       0.40429   0.89465   0.48604
C          C       0.84571   0.14465   0.73604
C          C       0.15429   0.85535   0.73604
C          C       0.15429   0.14465   0.26396
C          C       0.84571   0.85535   0.26396
C          C       0.40429   0.10535   0.51396
C          C       0.09571   0.39465   0.51396
C          C       0.09571   0.10535   0.98604
C          C       0.40429   0.39465   0.98604
C          C       0.35470   0.65861   0.66831
C          C       0.64530   0.34139   0.66831
C          C       0.64530   0.65861   0.33169
C          C       0.35470   0.34139   0.33169
C          C       0.89530   0.59139   0.58169
C          C       0.60470   0.90861   0.58169
C          C       0.60470   0.59139   0.91831
C          C       0.89530   0.90861   0.91831
C          C       0.35470   0.15861   0.16831
C          C       0.64530   0.84139   0.16831
C          C       0.64530   0.15861   0.83169
C          C       0.35470   0.84139   0.83169
C          C       0.89530   0.09139   0.08169
C          C       0.60470   0.40861   0.08169
C          C       0.60470   0.09139   0.41831
C          C       0.89530   0.40861   0.41831
C          C       0.85470   0.65861   0.16831
C          C       0.14530   0.34139   0.16831
C          C       0.14530   0.65861   0.83169
C          C       0.85470   0.34139   0.83169
C          C       0.39530   0.59139   0.08169
C          C       0.10470   0.90861   0.08169
C          C       0.10470   0.59139   0.41831
C          C       0.39530   0.90861   0.41831
C          C       0.85470   0.15861   0.66831
C          C       0.14530   0.84139   0.66831
C          C       0.14530   0.15861   0.33169
C          C       0.85470   0.84139   0.33169
C          C       0.39530   0.09139   0.58169
C          C       0.10470   0.40861   0.58169
C          C       0.10470   0.09139   0.91831
C          C       0.39530   0.40861   0.91831
C          C       0.34011   0.66959   0.60704
C          C       0.65989   0.33041   0.60704
C          C       0.65989   0.66959   0.39296
C          C       0.34011   0.33041   0.39296
C          C       0.90989   0.58041   0.64296
C          C       0.59011   0.91959   0.64296
C          C       0.59011   0.58041   0.85704
C          C       0.90989   0.91959   0.85704
C          C       0.34011   0.16959   0.10704
C          C       0.65989   0.83041   0.10704
C          C       0.65989   0.16959   0.89296
C          C       0.34011   0.83041   0.89296
C          C       0.90989   0.08041   0.14296
C          C       0.59011   0.41959   0.14296
C          C       0.59011   0.08041   0.35704
C          C       0.90989   0.41959   0.35704
C          C       0.84011   0.66959   0.10704
C          C       0.15989   0.33041   0.10704
C          C       0.15989   0.66959   0.89296
C          C       0.84011   0.33041   0.89296
C          C       0.40989   0.58041   0.14296
C          C       0.09011   0.91959   0.14296
C          C       0.09011   0.58041   0.35704
C          C       0.40989   0.91959   0.35704
C          C       0.84011   0.16959   0.60704
C          C       0.15989   0.83041   0.60704
C          C       0.15989   0.16959   0.39296
C          C       0.84011   0.83041   0.39296
C          C       0.40989   0.08041   0.64296
C          C       0.09011   0.41959   0.64296
C          C       0.09011   0.08041   0.85704
C          C       0.40989   0.41959   0.85704
C          C       0.36103   0.63396   0.80552
C          C       0.63897   0.36604   0.80552
C          C       0.63897   0.63396   0.19448
C          C       0.36103   0.36604   0.19448
C          C       0.88897   0.61604   0.44448
C          C       0.61103   0.88396   0.44448
C          C       0.61103   0.61604   0.05552
C          C       0.88897   0.88396   0.05552
C          C       0.36103   0.13396   0.30552
C          C       0.63897   0.86604   0.30552
C          C       0.63897   0.13396   0.69448
C          C       0.36103   0.86604   0.69448
C          C       0.88897   0.11604   0.94448
C          C       0.61103   0.38396   0.94448
C          C       0.61103   0.11604   0.55552
C          C       0.88897   0.38396   0.55552
C          C       0.86103   0.63396   0.30552
C          C       0.13897   0.36604   0.30552
C          C       0.13897   0.63396   0.69448
C          C       0.86103   0.36604   0.69448
C          C       0.38897   0.61604   0.94448
C          C       0.11103   0.88396   0.94448
C          C       0.11103   0.61604   0.55552
C          C       0.38897   0.88396   0.55552
C          C       0.86103   0.13396   0.80552
C          C       0.13897   0.86604   0.80552
C          C       0.13897   0.13396   0.19448
C          C       0.86103   0.86604   0.19448
C          C       0.38897   0.11604   0.44448
C          C       0.11103   0.38396   0.44448
C          C       0.11103   0.11604   0.05552
C          C       0.38897   0.38396   0.05552
C          C       0.29966   0.67909   0.55081
C          C       0.70034   0.32091   0.55081
C          C       0.70034   0.67909   0.44919
C          C       0.29966   0.32091   0.44919
C          C       0.95034   0.57091   0.69919
C          C       0.54966   0.92909   0.69919
C          C       0.54966   0.57091   0.80081
C          C       0.95034   0.92909   0.80081
C          C       0.29966   0.17909   0.05081
C          C       0.70034   0.82091   0.05081
C          C       0.70034   0.17909   0.94919
C          C       0.29966   0.82091   0.94919
C          C       0.95034   0.07091   0.19919
C          C       0.54966   0.42909   0.19919
C          C       0.54966   0.07091   0.30081
C          C       0.95034   0.42909   0.30081
C          C       0.79966   0.67909   0.05081
C          C       0.20034   0.32091   0.05081
C          C       0.20034   0.67909   0.94919
C          C       0.79966   0.32091   0.94919
C          C       0.45034   0.57091   0.19919
C          C       0.04966   0.92909   0.19919
C          C       0.04966   0.57091   0.30081
C          C       0.45034   0.92909   0.30081
C          C       0.79966   0.17909   0.55081
C          C       0.20034   0.82091   0.55081
C          C       0.20034   0.17909   0.44919
C          C       0.79966   0.82091   0.44919
C          C       0.45034   0.07091   0.69919
C          C       0.04966   0.42909   0.69919
C          C       0.04966   0.07091   0.80081
C          C       0.45034   0.42909   0.80081
N          N       0.30628   0.69160   0.48408
N          N       0.69372   0.30840   0.48408
N          N       0.69372   0.69160   0.51592
N          N       0.30628   0.30840   0.51592
N          N       0.94372   0.55840   0.76592
N          N       0.55628   0.94160   0.76592
N          N       0.55628   0.55840   0.73408
N          N       0.94372   0.94160   0.73408
N          N       0.30628   0.19160   0.98408
N          N       0.69372   0.80840   0.98408
N          N       0.69372   0.19160   0.01592
N          N       0.30628   0.80840   0.01592
N          N       0.94372   0.05840   0.26592
N          N       0.55628   0.44160   0.26592
N          N       0.55628   0.05840   0.23408
N          N       0.94372   0.44160   0.23408
N          N       0.80628   0.69160   0.98408
N          N       0.19372   0.30840   0.98408
N          N       0.19372   0.69160   0.01592
N          N       0.80628   0.30840   0.01592
N          N       0.44372   0.55840   0.26592
N          N       0.05628   0.94160   0.26592
N          N       0.05628   0.55840   0.23408
N          N       0.44372   0.94160   0.23408
N          N       0.80628   0.19160   0.48408
N          N       0.19372   0.80840   0.48408
N          N       0.19372   0.19160   0.51592
N          N       0.80628   0.80840   0.51592
N          N       0.44372   0.05840   0.76592
N          N       0.05628   0.44160   0.76592
N          N       0.05628   0.05840   0.73408
N          N       0.44372   0.44160   0.73408
C          C       0.29139   0.70436   0.42439
C          C       0.70861   0.29564   0.42439
C          C       0.70861   0.70436   0.57561
C          C       0.29139   0.29564   0.57561
C          C       0.95861   0.54564   0.82561
C          C       0.54139   0.95436   0.82561
C          C       0.54139   0.54564   0.67439
C          C       0.95861   0.95436   0.67439
C          C       0.29139   0.20436   0.92439
C          C       0.70861   0.79564   0.92439
C          C       0.70861   0.20436   0.07561
C          C       0.29139   0.79564   0.07561
C          C       0.95861   0.04564   0.32561
C          C       0.54139   0.45436   0.32561
C          C       0.54139   0.04564   0.17439
C          C       0.95861   0.45436   0.17439
C          C       0.79139   0.70436   0.92439
C          C       0.20861   0.29564   0.92439
C          C       0.20861   0.70436   0.07561
C          C       0.79139   0.29564   0.07561
C          C       0.45861   0.54564   0.32561
C          C       0.04139   0.95436   0.32561
C          C       0.04139   0.54564   0.17439
C          C       0.45861   0.95436   0.17439
C          C       0.79139   0.20436   0.42439
C          C       0.20861   0.79564   0.42439
C          C       0.20861   0.20436   0.57561
C          C       0.79139   0.79564   0.57561
C          C       0.45861   0.04564   0.82561
C          C       0.04139   0.45436   0.82561
C          C       0.04139   0.04564   0.67439
C          C       0.45861   0.45436   0.67439
C          C       0.35716   0.61138   0.83833
C          C       0.64284   0.38862   0.83833
C          C       0.64284   0.61138   0.16167
C          C       0.35716   0.38862   0.16167
C          C       0.89284   0.63862   0.41167
C          C       0.60716   0.86138   0.41167
C          C       0.60716   0.63862   0.08833
C          C       0.89284   0.86138   0.08833
C          C       0.35716   0.11138   0.33833
C          C       0.64284   0.88862   0.33833
C          C       0.64284   0.11138   0.66167
C          C       0.35716   0.88862   0.66167
C          C       0.89284   0.13862   0.91167
C          C       0.60716   0.36138   0.91167
C          C       0.60716   0.13862   0.58833
C          C       0.89284   0.36138   0.58833
C          C       0.85716   0.61138   0.33833
C          C       0.14284   0.38862   0.33833
C          C       0.14284   0.61138   0.66167
C          C       0.85716   0.38862   0.66167
C          C       0.39284   0.63862   0.91167
C          C       0.10716   0.86138   0.91167
C          C       0.10716   0.63862   0.58833
C          C       0.39284   0.86138   0.58833
C          C       0.85716   0.11138   0.83833
C          C       0.14284   0.88862   0.83833
C          C       0.14284   0.11138   0.16167
C          C       0.85716   0.88862   0.16167
C          C       0.39284   0.13862   0.41167
C          C       0.10716   0.36138   0.41167
C          C       0.10716   0.13862   0.08833
C          C       0.39284   0.36138   0.08833
C          C       0.37086   0.60304   0.90831
C          C       0.62914   0.39696   0.90831
C          C       0.62914   0.60304   0.09169
C          C       0.37086   0.39696   0.09169
C          C       0.87914   0.64696   0.34169
C          C       0.62086   0.85304   0.34169
C          C       0.62086   0.64696   0.15831
C          C       0.87914   0.85304   0.15831
C          C       0.37086   0.10304   0.40831
C          C       0.62914   0.89696   0.40831
C          C       0.62914   0.10304   0.59169
C          C       0.37086   0.89696   0.59169
C          C       0.87914   0.14696   0.84169
C          C       0.62086   0.35304   0.84169
C          C       0.62086   0.14696   0.65831
C          C       0.87914   0.35304   0.65831
C          C       0.87086   0.60304   0.40831
C          C       0.12914   0.39696   0.40831
C          C       0.12914   0.60304   0.59169
C          C       0.87086   0.39696   0.59169
C          C       0.37914   0.64696   0.84169
C          C       0.12086   0.85304   0.84169
C          C       0.12086   0.64696   0.65831
C          C       0.37914   0.85304   0.65831
C          C       0.87086   0.10304   0.90831
C          C       0.12914   0.89696   0.90831
C          C       0.12914   0.10304   0.09169
C          C       0.87086   0.89696   0.09169
C          C       0.37914   0.14696   0.34169
C          C       0.12086   0.35304   0.34169
C          C       0.12086   0.14696   0.15831
C          C       0.37914   0.35304   0.15831
C          C       0.44993   0.53836   0.40659
C          C       0.55007   0.46164   0.40659
C          C       0.55007   0.53836   0.59341
C          C       0.44993   0.46164   0.59341
C          C       0.80007   0.71164   0.84341
C          C       0.69993   0.78836   0.84341
C          C       0.69993   0.71164   0.65659
C          C       0.80007   0.78836   0.65659
C          C       0.44993   0.03836   0.90659
C          C       0.55007   0.96164   0.90659
C          C       0.55007   0.03836   0.09341
C          C       0.44993   0.96164   0.09341
C          C       0.80007   0.21164   0.34341
C          C       0.69993   0.28836   0.34341
C          C       0.69993   0.21164   0.15659
C          C       0.80007   0.28836   0.15659
C          C       0.94993   0.53836   0.90659
C          C       0.05007   0.46164   0.90659
C          C       0.05007   0.53836   0.09341
C          C       0.94993   0.46164   0.09341
C          C       0.30007   0.71164   0.34341
C          C       0.19993   0.78836   0.34341
C          C       0.19993   0.71164   0.15659
C          C       0.30007   0.78836   0.15659
C          C       0.94993   0.03836   0.40659
C          C       0.05007   0.96164   0.40659
C          C       0.05007   0.03836   0.59341
C          C       0.94993   0.96164   0.59341
C          C       0.30007   0.21164   0.84341
C          C       0.19993   0.28836   0.84341
C          C       0.19993   0.21164   0.65659
C          C       0.30007   0.28836   0.65659
C          C       0.46322   0.52477   0.46432
C          C       0.53678   0.47523   0.46432
C          C       0.53678   0.52477   0.53568
C          C       0.46322   0.47523   0.53568
C          C       0.78678   0.72523   0.78568
C          C       0.71322   0.77477   0.78568
C          C       0.71322   0.72523   0.71432
C          C       0.78678   0.77477   0.71432
C          C       0.46322   0.02477   0.96432
C          C       0.53678   0.97523   0.96432
C          C       0.53678   0.02477   0.03568
C          C       0.46322   0.97523   0.03568
C          C       0.78678   0.22523   0.28568
C          C       0.71322   0.27477   0.28568
C          C       0.71322   0.22523   0.21432
C          C       0.78678   0.27477   0.21432
C          C       0.96322   0.52477   0.96432
C          C       0.03678   0.47523   0.96432
C          C       0.03678   0.52477   0.03568
C          C       0.96322   0.47523   0.03568
C          C       0.28678   0.72523   0.28568
C          C       0.21322   0.77477   0.28568
C          C       0.21322   0.72523   0.21432
C          C       0.28678   0.77477   0.21432
C          C       0.96322   0.02477   0.46432
C          C       0.03678   0.97523   0.46432
C          C       0.03678   0.02477   0.53568
C          C       0.96322   0.97523   0.53568
C          C       0.28678   0.22523   0.78568
C          C       0.21322   0.27477   0.78568
C          C       0.21322   0.22523   0.71432
C          C       0.28678   0.27477   0.71432
C          C       0.48535   0.51673   0.44087
C          C       0.51465   0.48327   0.44087
C          C       0.51465   0.51673   0.55913
C          C       0.48535   0.48327   0.55913
C          C       0.76465   0.73327   0.80913
C          C       0.73535   0.76673   0.80913
C          C       0.73535   0.73327   0.69087
C          C       0.76465   0.76673   0.69087
C          C       0.48535   0.01673   0.94087
C          C       0.51465   0.98327   0.94087
C          C       0.51465   0.01673   0.05913
C          C       0.48535   0.98327   0.05913
C          C       0.76465   0.23327   0.30913
C          C       0.73535   0.26673   0.30913
C          C       0.73535   0.23327   0.19087
C          C       0.76465   0.26673   0.19087
C          C       0.98535   0.51673   0.94087
C          C       0.01465   0.48327   0.94087
C          C       0.01465   0.51673   0.05913
C          C       0.98535   0.48327   0.05913
C          C       0.26465   0.73327   0.30913
C          C       0.23535   0.76673   0.30913
C          C       0.23535   0.73327   0.19087
C          C       0.26465   0.76673   0.19087
C          C       0.98535   0.01673   0.44087
C          C       0.01465   0.98327   0.44087
C          C       0.01465   0.01673   0.55913
C          C       0.98535   0.98327   0.55913
C          C       0.26465   0.23327   0.80913
C          C       0.23535   0.26673   0.80913
C          C       0.23535   0.23327   0.69087
C          C       0.26465   0.26673   0.69087
C          C       0.49459   0.52578   0.36235
C          C       0.50541   0.47422   0.36235
C          C       0.50541   0.52578   0.63765
C          C       0.49459   0.47422   0.63765
C          C       0.75541   0.72422   0.88765
C          C       0.74459   0.77578   0.88765
C          C       0.74459   0.72422   0.61235
C          C       0.75541   0.77578   0.61235
C          C       0.49459   0.02578   0.86235
C          C       0.50541   0.97422   0.86235
C          C       0.50541   0.02578   0.13765
C          C       0.49459   0.97422   0.13765
C          C       0.75541   0.22422   0.38765
C          C       0.74459   0.27578   0.38765
C          C       0.74459   0.22422   0.11235
C          C       0.75541   0.27578   0.11235
C          C       0.99459   0.52578   0.86235
C          C       0.00541   0.47422   0.86235
C          C       0.00541   0.52578   0.13765
C          C       0.99459   0.47422   0.13765
C          C       0.25541   0.72422   0.38765
C          C       0.24459   0.77578   0.38765
C          C       0.24459   0.72422   0.11235
C          C       0.25541   0.77578   0.11235
C          C       0.99459   0.02578   0.36235
C          C       0.00541   0.97422   0.36235
C          C       0.00541   0.02578   0.63765
C          C       0.99459   0.97422   0.63765
C          C       0.25541   0.22422   0.88765
C          C       0.24459   0.27578   0.88765
C          C       0.24459   0.22422   0.61235
C          C       0.25541   0.27578   0.61235
C          C       0.48140   0.53947   0.30505
C          C       0.51860   0.46053   0.30505
C          C       0.51860   0.53947   0.69495
C          C       0.48140   0.46053   0.69495
C          C       0.76860   0.71053   0.94495
C          C       0.73140   0.78947   0.94495
C          C       0.73140   0.71053   0.55505
C          C       0.76860   0.78947   0.55505
C          C       0.48140   0.03947   0.80505
C          C       0.51860   0.96053   0.80505
C          C       0.51860   0.03947   0.19495
C          C       0.48140   0.96053   0.19495
C          C       0.76860   0.21053   0.44495
C          C       0.73140   0.28947   0.44495
C          C       0.73140   0.21053   0.05505
C          C       0.76860   0.28947   0.05505
C          C       0.98140   0.53947   0.80505
C          C       0.01860   0.46053   0.80505
C          C       0.01860   0.53947   0.19495
C          C       0.98140   0.46053   0.19495
C          C       0.26860   0.71053   0.44495
C          C       0.23140   0.78947   0.44495
C          C       0.23140   0.71053   0.05505
C          C       0.26860   0.78947   0.05505
C          C       0.98140   0.03947   0.30505
C          C       0.01860   0.96053   0.30505
C          C       0.01860   0.03947   0.69495
C          C       0.98140   0.96053   0.69495
C          C       0.26860   0.21053   0.94495
C          C       0.23140   0.28947   0.94495
C          C       0.23140   0.21053   0.55505
C          C       0.26860   0.28947   0.55505
O          O       0.34014   0.59766   0.79737
O          O       0.65986   0.40234   0.79737
O          O       0.65986   0.59766   0.20263
O          O       0.34014   0.40234   0.20263
O          O       0.90986   0.65234   0.45263
O          O       0.59014   0.84766   0.45263
O          O       0.59014   0.65234   0.04737
O          O       0.90986   0.84766   0.04737
O          O       0.34014   0.09766   0.29737
O          O       0.65986   0.90234   0.29737
O          O       0.65986   0.09766   0.70263
O          O       0.34014   0.90234   0.70263
O          O       0.90986   0.15234   0.95263
O          O       0.59014   0.34766   0.95263
O          O       0.59014   0.15234   0.54737
O          O       0.90986   0.34766   0.54737
O          O       0.84014   0.59766   0.29737
O          O       0.15986   0.40234   0.29737
O          O       0.15986   0.59766   0.70263
O          O       0.84014   0.40234   0.70263
O          O       0.40986   0.65234   0.95263
O          O       0.09014   0.84766   0.95263
O          O       0.09014   0.65234   0.54737
O          O       0.40986   0.84766   0.54737
O          O       0.84014   0.09766   0.79737
O          O       0.15986   0.90234   0.79737
O          O       0.15986   0.09766   0.20263
O          O       0.84014   0.90234   0.20263
O          O       0.40986   0.15234   0.45263
O          O       0.09014   0.34766   0.45263
O          O       0.09014   0.15234   0.04737
O          O       0.40986   0.34766   0.04737
C          C       0.33749   0.57371   0.82070
C          C       0.66251   0.42629   0.82070
C          C       0.66251   0.57371   0.17930
C          C       0.33749   0.42629   0.17930
C          C       0.91251   0.67629   0.42930
C          C       0.58749   0.82371   0.42930
C          C       0.58749   0.67629   0.07070
C          C       0.91251   0.82371   0.07070
C          C       0.33749   0.07371   0.32070
C          C       0.66251   0.92629   0.32070
C          C       0.66251   0.07371   0.67930
C          C       0.33749   0.92629   0.67930
C          C       0.91251   0.17629   0.92930
C          C       0.58749   0.32371   0.92930
C          C       0.58749   0.17629   0.57070
C          C       0.91251   0.32371   0.57070
C          C       0.83749   0.57371   0.32070
C          C       0.16251   0.42629   0.32070
C          C       0.16251   0.57371   0.67930
C          C       0.83749   0.42629   0.67930
C          C       0.41251   0.67629   0.92930
C          C       0.08749   0.82371   0.92930
C          C       0.08749   0.67629   0.57070
C          C       0.41251   0.82371   0.57070
C          C       0.83749   0.07371   0.82070
C          C       0.16251   0.92629   0.82070
C          C       0.16251   0.07371   0.17930
C          C       0.83749   0.92629   0.17930
C          C       0.41251   0.17629   0.42930
C          C       0.08749   0.32371   0.42930
C          C       0.08749   0.17629   0.07070
C          C       0.41251   0.32371   0.07070
C          C       0.35827   0.55909   0.79237
C          C       0.64173   0.44091   0.79237
C          C       0.64173   0.55909   0.20763
C          C       0.35827   0.44091   0.20763
C          C       0.89173   0.69091   0.45763
C          C       0.60827   0.80909   0.45763
C          C       0.60827   0.69091   0.04237
C          C       0.89173   0.80909   0.04237
C          C       0.35827   0.05909   0.29237
C          C       0.64173   0.94091   0.29237
C          C       0.64173   0.05909   0.70763
C          C       0.35827   0.94091   0.70763
C          C       0.89173   0.19091   0.95763
C          C       0.60827   0.30909   0.95763
C          C       0.60827   0.19091   0.54237
C          C       0.89173   0.30909   0.54237
C          C       0.85827   0.55909   0.29237
C          C       0.14173   0.44091   0.29237
C          C       0.14173   0.55909   0.70763
C          C       0.85827   0.44091   0.70763
C          C       0.39173   0.69091   0.95763
C          C       0.10827   0.80909   0.95763
C          C       0.10827   0.69091   0.54237
C          C       0.39173   0.80909   0.54237
C          C       0.85827   0.05909   0.79237
C          C       0.14173   0.94091   0.79237
C          C       0.14173   0.05909   0.20763
C          C       0.85827   0.94091   0.20763
C          C       0.39173   0.19091   0.45763
C          C       0.10827   0.30909   0.45763
C          C       0.10827   0.19091   0.04237
C          C       0.39173   0.30909   0.04237
O          O       0.36769   0.54803   0.86670
O          O       0.63231   0.45197   0.86670
O          O       0.63231   0.54803   0.13330
O          O       0.36769   0.45197   0.13330
O          O       0.88231   0.70197   0.38330
O          O       0.61769   0.79803   0.38330
O          O       0.61769   0.70197   0.11670
O          O       0.88231   0.79803   0.11670
O          O       0.36769   0.04803   0.36670
O          O       0.63231   0.95197   0.36670
O          O       0.63231   0.04803   0.63330
O          O       0.36769   0.95197   0.63330
O          O       0.88231   0.20197   0.88330
O          O       0.61769   0.29803   0.88330
O          O       0.61769   0.20197   0.61670
O          O       0.88231   0.29803   0.61670
O          O       0.86769   0.54803   0.36670
O          O       0.13231   0.45197   0.36670
O          O       0.13231   0.54803   0.63330
O          O       0.86769   0.45197   0.63330
O          O       0.38231   0.70197   0.88330
O          O       0.11769   0.79803   0.88330
O          O       0.11769   0.70197   0.61670
O          O       0.38231   0.79803   0.61670
O          O       0.86769   0.04803   0.86670
O          O       0.13231   0.95197   0.86670
O          O       0.13231   0.04803   0.13330
O          O       0.86769   0.95197   0.13330
O          O       0.38231   0.20197   0.38330
O          O       0.11769   0.29803   0.38330
O          O       0.11769   0.20197   0.11670
O          O       0.38231   0.29803   0.11670
C          C       0.38975   0.53903   0.84804
C          C       0.61025   0.46097   0.84804
C          C       0.61025   0.53903   0.15196
C          C       0.38975   0.46097   0.15196
C          C       0.86025   0.71097   0.40196
C          C       0.63975   0.78903   0.40196
C          C       0.63975   0.71097   0.09804
C          C       0.86025   0.78903   0.09804
C          C       0.38975   0.03903   0.34804
C          C       0.61025   0.96097   0.34804
C          C       0.61025   0.03903   0.65196
C          C       0.38975   0.96097   0.65196
C          C       0.86025   0.21097   0.90196
C          C       0.63975   0.28903   0.90196
C          C       0.63975   0.21097   0.59804
C          C       0.86025   0.28903   0.59804
C          C       0.88975   0.53903   0.34804
C          C       0.11025   0.46097   0.34804
C          C       0.11025   0.53903   0.65196
C          C       0.88975   0.46097   0.65196
C          C       0.36025   0.71097   0.90196
C          C       0.13975   0.78903   0.90196
C          C       0.13975   0.71097   0.59804
C          C       0.36025   0.78903   0.59804
C          C       0.88975   0.03903   0.84804
C          C       0.11025   0.96097   0.84804
C          C       0.11025   0.03903   0.15196
C          C       0.88975   0.96097   0.15196
C          C       0.36025   0.21097   0.40196
C          C       0.13975   0.28903   0.40196
C          C       0.13975   0.21097   0.09804
C          C       0.36025   0.28903   0.09804
C          C       0.09796   0.53499   0.56604
C          C       0.90204   0.46501   0.56604
C          C       0.90204   0.53499   0.43396
C          C       0.09796   0.46501   0.43396
C          C       0.15204   0.71501   0.68396
C          C       0.34796   0.78499   0.68396
C          C       0.34796   0.71501   0.81604
C          C       0.15204   0.78499   0.81604
C          C       0.09796   0.03499   0.06604
C          C       0.90204   0.96501   0.06604
C          C       0.90204   0.03499   0.93396
C          C       0.09796   0.96501   0.93396
C          C       0.15204   0.21501   0.18396
C          C       0.34796   0.28499   0.18396
C          C       0.34796   0.21501   0.31604
C          C       0.15204   0.28499   0.31604
C          C       0.59796   0.53499   0.06604
C          C       0.40204   0.46501   0.06604
C          C       0.40204   0.53499   0.93396
C          C       0.59796   0.46501   0.93396
C          C       0.65204   0.71501   0.18396
C          C       0.84796   0.78499   0.18396
C          C       0.84796   0.71501   0.31604
C          C       0.65204   0.78499   0.31604
C          C       0.59796   0.03499   0.56604
C          C       0.40204   0.96501   0.56604
C          C       0.40204   0.03499   0.43396
C          C       0.59796   0.96501   0.43396
C          C       0.65204   0.21501   0.68396
C          C       0.84796   0.28499   0.68396
C          C       0.84796   0.21501   0.81604
C          C       0.65204   0.28499   0.81604
O          O       0.07529   0.52732   0.58269
O          O       0.92471   0.47268   0.58269
O          O       0.92471   0.52732   0.41731
O          O       0.07529   0.47268   0.41731
O          O       0.17471   0.72268   0.66731
O          O       0.32529   0.77732   0.66731
O          O       0.32529   0.72268   0.83269
O          O       0.17471   0.77732   0.83269
O          O       0.07529   0.02732   0.08269
O          O       0.92471   0.97268   0.08269
O          O       0.92471   0.02732   0.91731
O          O       0.07529   0.97268   0.91731
O          O       0.17471   0.22268   0.16731
O          O       0.32529   0.27732   0.16731
O          O       0.32529   0.22268   0.33269
O          O       0.17471   0.27732   0.33269
O          O       0.57529   0.52732   0.08269
O          O       0.42471   0.47268   0.08269
O          O       0.42471   0.52732   0.91731
O          O       0.57529   0.47268   0.91731
O          O       0.67471   0.72268   0.16731
O          O       0.82529   0.77732   0.16731
O          O       0.82529   0.72268   0.33269
O          O       0.67471   0.77732   0.33269
O          O       0.57529   0.02732   0.58269
O          O       0.42471   0.97268   0.58269
O          O       0.42471   0.02732   0.41731
O          O       0.57529   0.97268   0.41731
O          O       0.67471   0.22268   0.66731
O          O       0.82529   0.27732   0.66731
O          O       0.82529   0.22268   0.83269
O          O       0.67471   0.27732   0.83269
C          C       0.06209   0.52931   0.50574
C          C       0.93791   0.47069   0.50574
C          C       0.93791   0.52931   0.49426
C          C       0.06209   0.47069   0.49426
C          C       0.18791   0.72069   0.74426
C          C       0.31209   0.77931   0.74426
C          C       0.31209   0.72069   0.75574
C          C       0.18791   0.77931   0.75574
C          C       0.06209   0.02931   0.00574
C          C       0.93791   0.97069   0.00574
C          C       0.93791   0.02931   0.99426
C          C       0.06209   0.97069   0.99426
C          C       0.18791   0.22069   0.24426
C          C       0.31209   0.27931   0.24426
C          C       0.31209   0.22069   0.25574
C          C       0.18791   0.27931   0.25574
C          C       0.56209   0.52931   0.00574
C          C       0.43791   0.47069   0.00574
C          C       0.43791   0.52931   0.99426
C          C       0.56209   0.47069   0.99426
C          C       0.68791   0.72069   0.24426
C          C       0.81209   0.77931   0.24426
C          C       0.81209   0.72069   0.25574
C          C       0.68791   0.77931   0.25574
C          C       0.56209   0.02931   0.50574
C          C       0.43791   0.97069   0.50574
C          C       0.43791   0.02931   0.49426
C          C       0.56209   0.97069   0.49426
C          C       0.68791   0.22069   0.74426
C          C       0.81209   0.27931   0.74426
C          C       0.81209   0.22069   0.75574
C          C       0.68791   0.27931   0.75574
H          H       0.28876   0.65070   0.68498
H          H       0.71124   0.34930   0.68498
H          H       0.71124   0.65070   0.31502
H          H       0.28876   0.34930   0.31502
H          H       0.96124   0.59930   0.56502
H          H       0.53876   0.90070   0.56502
H          H       0.53876   0.59930   0.93498
H          H       0.96124   0.90070   0.93498
H          H       0.28876   0.15070   0.18498
H          H       0.71124   0.84930   0.18498
H          H       0.71124   0.15070   0.81502
H          H       0.28876   0.84930   0.81502
H          H       0.96124   0.09930   0.06502
H          H       0.53876   0.40070   0.06502
H          H       0.53876   0.09930   0.43498
H          H       0.96124   0.40070   0.43498
H          H       0.78876   0.65070   0.18498
H          H       0.21124   0.34930   0.18498
H          H       0.21124   0.65070   0.81502
H          H       0.78876   0.34930   0.81502
H          H       0.46124   0.59930   0.06502
H          H       0.03876   0.90070   0.06502
H          H       0.03876   0.59930   0.43498
H          H       0.46124   0.90070   0.43498
H          H       0.78876   0.15070   0.68498
H          H       0.21124   0.84930   0.68498
H          H       0.21124   0.15070   0.31502
H          H       0.78876   0.84930   0.31502
H          H       0.46124   0.09930   0.56502
H          H       0.03876   0.40070   0.56502
H          H       0.03876   0.09930   0.93498
H          H       0.46124   0.40070   0.93498
H          H       0.31408   0.63163   0.79078
H          H       0.68592   0.36837   0.79078
H          H       0.68592   0.63163   0.20922
H          H       0.31408   0.36837   0.20922
H          H       0.93592   0.61837   0.45922
H          H       0.56408   0.88163   0.45922
H          H       0.56408   0.61837   0.04078
H          H       0.93592   0.88163   0.04078
H          H       0.31408   0.13163   0.29078
H          H       0.68592   0.86837   0.29078
H          H       0.68592   0.13163   0.70922
H          H       0.31408   0.86837   0.70922
H          H       0.93592   0.11837   0.95922
H          H       0.56408   0.38163   0.95922
H          H       0.56408   0.11837   0.54078
H          H       0.93592   0.38163   0.54078
H          H       0.81408   0.63163   0.29078
H          H       0.18592   0.36837   0.29078
H          H       0.18592   0.63163   0.70922
H          H       0.81408   0.36837   0.70922
H          H       0.43592   0.61837   0.95922
H          H       0.06408   0.88163   0.95922
H          H       0.06408   0.61837   0.54078
H          H       0.43592   0.88163   0.54078
H          H       0.81408   0.13163   0.79078
H          H       0.18592   0.86837   0.79078
H          H       0.18592   0.13163   0.20922
H          H       0.81408   0.86837   0.20922
H          H       0.43592   0.11837   0.45922
H          H       0.06408   0.38163   0.45922
H          H       0.06408   0.11837   0.04078
H          H       0.43592   0.38163   0.04078
H          H       0.37309   0.66096   0.66252
H          H       0.62691   0.33904   0.66252
H          H       0.62691   0.66096   0.33748
H          H       0.37309   0.33904   0.33748
H          H       0.87691   0.58904   0.58748
H          H       0.62309   0.91096   0.58748
H          H       0.62309   0.58904   0.91252
H          H       0.87691   0.91096   0.91252
H          H       0.37309   0.16096   0.16252
H          H       0.62691   0.83904   0.16252
H          H       0.62691   0.16096   0.83748
H          H       0.37309   0.83904   0.83748
H          H       0.87691   0.08904   0.08748
H          H       0.62309   0.41096   0.08748
H          H       0.62309   0.08904   0.41252
H          H       0.87691   0.41096   0.41252
H          H       0.87309   0.66096   0.16252
H          H       0.12691   0.33904   0.16252
H          H       0.12691   0.66096   0.83748
H          H       0.87309   0.33904   0.83748
H          H       0.37691   0.58904   0.08748
H          H       0.12309   0.91096   0.08748
H          H       0.12309   0.58904   0.41252
H          H       0.37691   0.91096   0.41252
H          H       0.87309   0.16096   0.66252
H          H       0.12691   0.83904   0.66252
H          H       0.12691   0.16096   0.33748
H          H       0.87309   0.83904   0.33748
H          H       0.37691   0.08904   0.58748
H          H       0.12309   0.41096   0.58748
H          H       0.12309   0.08904   0.91252
H          H       0.37691   0.41096   0.91252
H          H       0.34754   0.68018   0.55610
H          H       0.65246   0.31982   0.55610
H          H       0.65246   0.68018   0.44390
H          H       0.34754   0.31982   0.44390
H          H       0.90246   0.56982   0.69390
H          H       0.59754   0.93018   0.69390
H          H       0.59754   0.56982   0.80610
H          H       0.90246   0.93018   0.80610
H          H       0.34754   0.18018   0.05610
H          H       0.65246   0.81982   0.05610
H          H       0.65246   0.18018   0.94390
H          H       0.34754   0.81982   0.94390
H          H       0.90246   0.06982   0.19390
H          H       0.59754   0.43018   0.19390
H          H       0.59754   0.06982   0.30610
H          H       0.90246   0.43018   0.30610
H          H       0.84754   0.68018   0.05610
H          H       0.15246   0.31982   0.05610
H          H       0.15246   0.68018   0.94390
H          H       0.84754   0.31982   0.94390
H          H       0.40246   0.56982   0.19390
H          H       0.09754   0.93018   0.19390
H          H       0.09754   0.56982   0.30610
H          H       0.40246   0.93018   0.30610
H          H       0.84754   0.18018   0.55610
H          H       0.15246   0.81982   0.55610
H          H       0.15246   0.18018   0.44390
H          H       0.84754   0.81982   0.44390
H          H       0.40246   0.06982   0.69390
H          H       0.09754   0.43018   0.69390
H          H       0.09754   0.06982   0.80610
H          H       0.40246   0.43018   0.80610
H          H       0.28152   0.67678   0.56347
H          H       0.71848   0.32322   0.56347
H          H       0.71848   0.67678   0.43653
H          H       0.28152   0.32322   0.43653
H          H       0.96848   0.57322   0.68653
H          H       0.53152   0.92678   0.68653
H          H       0.53152   0.57322   0.81347
H          H       0.96848   0.92678   0.81347
H          H       0.28152   0.17678   0.06347
H          H       0.71848   0.82322   0.06347
H          H       0.71848   0.17678   0.93653
H          H       0.28152   0.82322   0.93653
H          H       0.96848   0.07322   0.18653
H          H       0.53152   0.42678   0.18653
H          H       0.53152   0.07322   0.31347
H          H       0.96848   0.42678   0.31347
H          H       0.78152   0.67678   0.06347
H          H       0.21848   0.32322   0.06347
H          H       0.21848   0.67678   0.93653
H          H       0.78152   0.32322   0.93653
H          H       0.46848   0.57322   0.18653
H          H       0.03152   0.92678   0.18653
H          H       0.03152   0.57322   0.31347
H          H       0.46848   0.92678   0.31347
H          H       0.78152   0.17678   0.56347
H          H       0.21848   0.82322   0.56347
H          H       0.21848   0.17678   0.43653
H          H       0.78152   0.82322   0.43653
H          H       0.46848   0.07322   0.68653
H          H       0.03152   0.42678   0.68653
H          H       0.03152   0.07322   0.81347
H          H       0.46848   0.42678   0.81347
H          H       0.36793   0.58606   0.93434
H          H       0.63207   0.41394   0.93434
H          H       0.63207   0.58606   0.06566
H          H       0.36793   0.41394   0.06566
H          H       0.88207   0.66394   0.31566
H          H       0.61793   0.83606   0.31566
H          H       0.61793   0.66394   0.18434
H          H       0.88207   0.83606   0.18434
H          H       0.36793   0.08606   0.43434
H          H       0.63207   0.91394   0.43434
H          H       0.63207   0.08606   0.56566
H          H       0.36793   0.91394   0.56566
H          H       0.88207   0.16394   0.81566
H          H       0.61793   0.33606   0.81566
H          H       0.61793   0.16394   0.68434
H          H       0.88207   0.33606   0.68434
H          H       0.86793   0.58606   0.43434
H          H       0.13207   0.41394   0.43434
H          H       0.13207   0.58606   0.56566
H          H       0.86793   0.41394   0.56566
H          H       0.38207   0.66394   0.81566
H          H       0.11793   0.83606   0.81566
H          H       0.11793   0.66394   0.68434
H          H       0.38207   0.83606   0.68434
H          H       0.86793   0.08606   0.93434
H          H       0.13207   0.91394   0.93434
H          H       0.13207   0.08606   0.06566
H          H       0.86793   0.91394   0.06566
H          H       0.38207   0.16394   0.31566
H          H       0.11793   0.33606   0.31566
H          H       0.11793   0.16394   0.18434
H          H       0.38207   0.33606   0.18434
H          H       0.43269   0.54338   0.42498
H          H       0.56731   0.45662   0.42498
H          H       0.56731   0.54338   0.57502
H          H       0.43269   0.45662   0.57502
H          H       0.81731   0.70662   0.82502
H          H       0.68269   0.79338   0.82502
H          H       0.68269   0.70662   0.67498
H          H       0.81731   0.79338   0.67498
H          H       0.43269   0.04338   0.92498
H          H       0.56731   0.95662   0.92498
H          H       0.56731   0.04338   0.07502
H          H       0.43269   0.95662   0.07502
H          H       0.81731   0.20662   0.32502
H          H       0.68269   0.29338   0.32502
H          H       0.68269   0.20662   0.17498
H          H       0.81731   0.29338   0.17498
H          H       0.93269   0.54338   0.92498
H          H       0.06731   0.45662   0.92498
H          H       0.06731   0.54338   0.07502
H          H       0.93269   0.45662   0.07502
H          H       0.31731   0.70662   0.32502
H          H       0.18269   0.79338   0.32502
H          H       0.18269   0.70662   0.17498
H          H       0.31731   0.79338   0.17498
H          H       0.93269   0.04338   0.42498
H          H       0.06731   0.95662   0.42498
H          H       0.06731   0.04338   0.57502
H          H       0.93269   0.95662   0.57502
H          H       0.31731   0.20662   0.82502
H          H       0.18269   0.29338   0.82502
H          H       0.18269   0.20662   0.67498
H          H       0.31731   0.29338   0.67498
H          H       0.45593   0.52030   0.52698
H          H       0.54407   0.47970   0.52698
H          H       0.54407   0.52030   0.47302
H          H       0.45593   0.47970   0.47302
H          H       0.79407   0.72970   0.72302
H          H       0.70593   0.77030   0.72302
H          H       0.70593   0.72970   0.77698
H          H       0.79407   0.77030   0.77698
H          H       0.45593   0.02030   0.02698
H          H       0.54407   0.97970   0.02698
H          H       0.54407   0.02030   0.97302
H          H       0.45593   0.97970   0.97302
H          H       0.79407   0.22970   0.22302
H          H       0.70593   0.27030   0.22302
H          H       0.70593   0.22970   0.27698
H          H       0.79407   0.27030   0.27698
H          H       0.95593   0.52030   0.02698
H          H       0.04407   0.47970   0.02698
H          H       0.04407   0.52030   0.97302
H          H       0.95593   0.47970   0.97302
H          H       0.29407   0.72970   0.22302
H          H       0.20593   0.77030   0.22302
H          H       0.20593   0.72970   0.27698
H          H       0.29407   0.77030   0.27698
H          H       0.95593   0.02030   0.52698
H          H       0.04407   0.97970   0.52698
H          H       0.04407   0.02030   0.47302
H          H       0.95593   0.97970   0.47302
H          H       0.29407   0.22970   0.72302
H          H       0.20593   0.27030   0.72302
H          H       0.20593   0.22970   0.77698
H          H       0.29407   0.27030   0.77698
H          H       0.51206   0.52164   0.34363
H          H       0.48794   0.47836   0.34363
H          H       0.48794   0.52164   0.65637
H          H       0.51206   0.47836   0.65637
H          H       0.73794   0.72836   0.90637
H          H       0.76206   0.77164   0.90637
H          H       0.76206   0.72836   0.59363
H          H       0.73794   0.77164   0.59363
H          H       0.51206   0.02164   0.84363
H          H       0.48794   0.97836   0.84363
H          H       0.48794   0.02164   0.15637
H          H       0.51206   0.97836   0.15637
H          H       0.73794   0.22836   0.40637
H          H       0.76206   0.27164   0.40637
H          H       0.76206   0.22836   0.09363
H          H       0.73794   0.27164   0.09363
H          H       0.01206   0.52164   0.84363
H          H       0.98794   0.47836   0.84363
H          H       0.98794   0.52164   0.15637
H          H       0.01206   0.47836   0.15637
H          H       0.23794   0.72836   0.40637
H          H       0.26206   0.77164   0.40637
H          H       0.26206   0.72836   0.09363
H          H       0.23794   0.77164   0.09363
H          H       0.01206   0.02164   0.34363
H          H       0.98794   0.97836   0.34363
H          H       0.98794   0.02164   0.65637
H          H       0.01206   0.97836   0.65637
H          H       0.23794   0.22836   0.90637
H          H       0.26206   0.27164   0.90637
H          H       0.26206   0.22836   0.59363
H          H       0.23794   0.27164   0.59363
H          H       0.48902   0.54465   0.24391
H          H       0.51098   0.45535   0.24391
H          H       0.51098   0.54465   0.75609
H          H       0.48902   0.45535   0.75609
H          H       0.76098   0.70535   0.00609
H          H       0.73902   0.79465   0.00609
H          H       0.73902   0.70535   0.49391
H          H       0.76098   0.79465   0.49391
H          H       0.48902   0.04465   0.74391
H          H       0.51098   0.95535   0.74391
H          H       0.51098   0.04465   0.25609
H          H       0.48902   0.95535   0.25609
H          H       0.76098   0.20535   0.50609
H          H       0.73902   0.29465   0.50609
H          H       0.73902   0.20535   0.99391
H          H       0.76098   0.29465   0.99391
H          H       0.98902   0.54465   0.74391
H          H       0.01098   0.45535   0.74391
H          H       0.01098   0.54465   0.25609
H          H       0.98902   0.45535   0.25609
H          H       0.26098   0.70535   0.50609
H          H       0.23902   0.79465   0.50609
H          H       0.23902   0.70535   0.99391
H          H       0.26098   0.79465   0.99391
H          H       0.98902   0.04465   0.24391
H          H       0.01098   0.95535   0.24391
H          H       0.01098   0.04465   0.75609
H          H       0.98902   0.95535   0.75609
H          H       0.26098   0.20535   0.00609
H          H       0.23902   0.29465   0.00609
H          H       0.23902   0.20535   0.49391
H          H       0.26098   0.29465   0.49391
H          H       0.32196   0.56697   0.78710
H          H       0.67804   0.43303   0.78710
H          H       0.67804   0.56697   0.21290
H          H       0.32196   0.43303   0.21290
H          H       0.92804   0.68303   0.46290
H          H       0.57196   0.81697   0.46290
H          H       0.57196   0.68303   0.03710
H          H       0.92804   0.81697   0.03710
H          H       0.32196   0.06697   0.28710
H          H       0.67804   0.93303   0.28710
H          H       0.67804   0.06697   0.71290
H          H       0.32196   0.93303   0.71290
H          H       0.92804   0.18303   0.96290
H          H       0.57196   0.31697   0.96290
H          H       0.57196   0.18303   0.53710
H          H       0.92804   0.31697   0.53710
H          H       0.82196   0.56697   0.28710
H          H       0.17804   0.43303   0.28710
H          H       0.17804   0.56697   0.71290
H          H       0.82196   0.43303   0.71290
H          H       0.42804   0.68303   0.96290
H          H       0.07196   0.81697   0.96290
H          H       0.07196   0.68303   0.53710
H          H       0.42804   0.81697   0.53710
H          H       0.82196   0.06697   0.78710
H          H       0.17804   0.93303   0.78710
H          H       0.17804   0.06697   0.21290
H          H       0.82196   0.93303   0.21290
H          H       0.42804   0.18303   0.46290
H          H       0.07196   0.31697   0.46290
H          H       0.07196   0.18303   0.03710
H          H       0.42804   0.31697   0.03710
H          H       0.33392   0.57174   0.89161
H          H       0.66608   0.42826   0.89161
H          H       0.66608   0.57174   0.10839
H          H       0.33392   0.42826   0.10839
H          H       0.91608   0.67826   0.35839
H          H       0.58392   0.82174   0.35839
H          H       0.58392   0.67826   0.14161
H          H       0.91608   0.82174   0.14161
H          H       0.33392   0.07174   0.39161
H          H       0.66608   0.92826   0.39161
H          H       0.66608   0.07174   0.60839
H          H       0.33392   0.92826   0.60839
H          H       0.91608   0.17826   0.85839
H          H       0.58392   0.32174   0.85839
H          H       0.58392   0.17826   0.64161
H          H       0.91608   0.32174   0.64161
H          H       0.83392   0.57174   0.39161
H          H       0.16608   0.42826   0.39161
H          H       0.16608   0.57174   0.60839
H          H       0.83392   0.42826   0.60839
H          H       0.41608   0.67826   0.85839
H          H       0.08392   0.82174   0.85839
H          H       0.08392   0.67826   0.64161
H          H       0.41608   0.82174   0.64161
H          H       0.83392   0.07174   0.89161
H          H       0.16608   0.92826   0.89161
H          H       0.16608   0.07174   0.10839
H          H       0.83392   0.92826   0.10839
H          H       0.41608   0.17826   0.35839
H          H       0.08392   0.32174   0.35839
H          H       0.08392   0.17826   0.14161
H          H       0.41608   0.32174   0.14161
H          H       0.37076   0.57080   0.75935
H          H       0.62924   0.42920   0.75935
H          H       0.62924   0.57080   0.24065
H          H       0.37076   0.42920   0.24065
H          H       0.87924   0.67920   0.49065
H          H       0.62076   0.82080   0.49065
H          H       0.62076   0.67920   0.00935
H          H       0.87924   0.82080   0.00935
H          H       0.37076   0.07080   0.25935
H          H       0.62924   0.92920   0.25935
H          H       0.62924   0.07080   0.74065
H          H       0.37076   0.92920   0.74065
H          H       0.87924   0.17920   0.99065
H          H       0.62076   0.32080   0.99065
H          H       0.62076   0.17920   0.50935
H          H       0.87924   0.32080   0.50935
H          H       0.87076   0.57080   0.25935
H          H       0.12924   0.42920   0.25935
H          H       0.12924   0.57080   0.74065
H          H       0.87076   0.42920   0.74065
H          H       0.37924   0.67920   0.99065
H          H       0.12076   0.82080   0.99065
H          H       0.12076   0.67920   0.50935
H          H       0.37924   0.82080   0.50935
H          H       0.87076   0.07080   0.75935
H          H       0.12924   0.92920   0.75935
H          H       0.12924   0.07080   0.24065
H          H       0.87076   0.92920   0.24065
H          H       0.37924   0.17920   0.49065
H          H       0.12076   0.32080   0.49065
H          H       0.12076   0.17920   0.00935
H          H       0.37924   0.32080   0.00935
H          H       0.35267   0.54590   0.74405
H          H       0.64733   0.45410   0.74405
H          H       0.64733   0.54590   0.25595
H          H       0.35267   0.45410   0.25595
H          H       0.89733   0.70410   0.50595
H          H       0.60267   0.79590   0.50595
H          H       0.60267   0.70410   0.99405
H          H       0.89733   0.79590   0.99405
H          H       0.35267   0.04590   0.24405
H          H       0.64733   0.95410   0.24405
H          H       0.64733   0.04590   0.75595
H          H       0.35267   0.95410   0.75595
H          H       0.89733   0.20410   0.00595
H          H       0.60267   0.29590   0.00595
H          H       0.60267   0.20410   0.49405
H          H       0.89733   0.29590   0.49405
H          H       0.85267   0.54590   0.24405
H          H       0.14733   0.45410   0.24405
H          H       0.14733   0.54590   0.75595
H          H       0.85267   0.45410   0.75595
H          H       0.39733   0.70410   0.00595
H          H       0.10267   0.79590   0.00595
H          H       0.10267   0.70410   0.49405
H          H       0.39733   0.79590   0.49405
H          H       0.85267   0.04590   0.74405
H          H       0.14733   0.95410   0.74405
H          H       0.14733   0.04590   0.25595
H          H       0.85267   0.95410   0.25595
H          H       0.39733   0.20410   0.50595
H          H       0.10267   0.29590   0.50595
H          H       0.10267   0.20410   0.99405
H          H       0.39733   0.29590   0.99405
H          H       0.40066   0.55110   0.80921
H          H       0.59934   0.44890   0.80921
H          H       0.59934   0.55110   0.19079
H          H       0.40066   0.44890   0.19079
H          H       0.84934   0.69890   0.44079
H          H       0.65066   0.80110   0.44079
H          H       0.65066   0.69890   0.05921
H          H       0.84934   0.80110   0.05921
H          H       0.40066   0.05110   0.30921
H          H       0.59934   0.94890   0.30921
H          H       0.59934   0.05110   0.69079
H          H       0.40066   0.94890   0.69079
H          H       0.84934   0.19890   0.94079
H          H       0.65066   0.30110   0.94079
H          H       0.65066   0.19890   0.55921
H          H       0.84934   0.30110   0.55921
H          H       0.90066   0.55110   0.30921
H          H       0.09934   0.44890   0.30921
H          H       0.09934   0.55110   0.69079
H          H       0.90066   0.44890   0.69079
H          H       0.34934   0.69890   0.94079
H          H       0.15066   0.80110   0.94079
H          H       0.15066   0.69890   0.55921
H          H       0.34934   0.80110   0.55921
H          H       0.90066   0.05110   0.80921
H          H       0.09934   0.94890   0.80921
H          H       0.09934   0.05110   0.19079
H          H       0.90066   0.94890   0.19079
H          H       0.34934   0.19890   0.44079
H          H       0.15066   0.30110   0.44079
H          H       0.15066   0.19890   0.05921
H          H       0.34934   0.30110   0.05921
H          H       0.38834   0.52231   0.81255
H          H       0.61166   0.47769   0.81255
H          H       0.61166   0.52231   0.18745
H          H       0.38834   0.47769   0.18745
H          H       0.86166   0.72769   0.43745
H          H       0.63834   0.77231   0.43745
H          H       0.63834   0.72769   0.06255
H          H       0.86166   0.77231   0.06255
H          H       0.38834   0.02231   0.31255
H          H       0.61166   0.97769   0.31255
H          H       0.61166   0.02231   0.68745
H          H       0.38834   0.97769   0.68745
H          H       0.86166   0.22769   0.93745
H          H       0.63834   0.27231   0.93745
H          H       0.63834   0.22769   0.56255
H          H       0.86166   0.27231   0.56255
H          H       0.88834   0.52231   0.31255
H          H       0.11166   0.47769   0.31255
H          H       0.11166   0.52231   0.68745
H          H       0.88834   0.47769   0.68745
H          H       0.36166   0.72769   0.93745
H          H       0.13834   0.77231   0.93745
H          H       0.13834   0.72769   0.56255
H          H       0.36166   0.77231   0.56255
H          H       0.88834   0.02231   0.81255
H          H       0.11166   0.97769   0.81255
H          H       0.11166   0.02231   0.18745
H          H       0.88834   0.97769   0.18745
H          H       0.36166   0.22769   0.43745
H          H       0.13834   0.27231   0.43745
H          H       0.13834   0.22769   0.06255
H          H       0.36166   0.27231   0.06255
H          H       0.10767   0.52182   0.52814
H          H       0.89233   0.47818   0.52814
H          H       0.89233   0.52182   0.47186
H          H       0.10767   0.47818   0.47186
H          H       0.14233   0.72818   0.72186
H          H       0.35767   0.77182   0.72186
H          H       0.35767   0.72818   0.77814
H          H       0.14233   0.77182   0.77814
H          H       0.10767   0.02182   0.02814
H          H       0.89233   0.97818   0.02814
H          H       0.89233   0.02182   0.97186
H          H       0.10767   0.97818   0.97186
H          H       0.14233   0.22818   0.22186
H          H       0.35767   0.27182   0.22186
H          H       0.35767   0.22818   0.27814
H          H       0.14233   0.27182   0.27814
H          H       0.60767   0.52182   0.02814
H          H       0.39233   0.47818   0.02814
H          H       0.39233   0.52182   0.97186
H          H       0.60767   0.47818   0.97186
H          H       0.64233   0.72818   0.22186
H          H       0.85767   0.77182   0.22186
H          H       0.85767   0.72818   0.27814
H          H       0.64233   0.77182   0.27814
H          H       0.60767   0.02182   0.52814
H          H       0.39233   0.97818   0.52814
H          H       0.39233   0.02182   0.47186
H          H       0.60767   0.97818   0.47186
H          H       0.64233   0.22818   0.72186
H          H       0.85767   0.27182   0.72186
H          H       0.85767   0.22818   0.77814
H          H       0.64233   0.27182   0.77814
H          H       0.09848   0.55168   0.52974
H          H       0.90152   0.44832   0.52974
H          H       0.90152   0.55168   0.47026
H          H       0.09848   0.44832   0.47026
H          H       0.15152   0.69832   0.72026
H          H       0.34848   0.80168   0.72026
H          H       0.34848   0.69832   0.77974
H          H       0.15152   0.80168   0.77974
H          H       0.09848   0.05168   0.02974
H          H       0.90152   0.94832   0.02974
H          H       0.90152   0.05168   0.97026
H          H       0.09848   0.94832   0.97026
H          H       0.15152   0.19832   0.22026
H          H       0.34848   0.30168   0.22026
H          H       0.34848   0.19832   0.27974
H          H       0.15152   0.30168   0.27974
H          H       0.59848   0.55168   0.02974
H          H       0.40152   0.44832   0.02974
H          H       0.40152   0.55168   0.97026
H          H       0.59848   0.44832   0.97026
H          H       0.65152   0.69832   0.22026
H          H       0.84848   0.80168   0.22026
H          H       0.84848   0.69832   0.27974
H          H       0.65152   0.80168   0.27974
H          H       0.59848   0.05168   0.52974
H          H       0.40152   0.94832   0.52974
H          H       0.40152   0.05168   0.47026
H          H       0.59848   0.94832   0.47026
H          H       0.65152   0.19832   0.72026
H          H       0.84848   0.30168   0.72026
H          H       0.84848   0.19832   0.77974
H          H       0.65152   0.30168   0.77974
H          H       0.04486   0.52172   0.51763
H          H       0.95514   0.47828   0.51763
H          H       0.95514   0.52172   0.48237
H          H       0.04486   0.47828   0.48237
H          H       0.20514   0.72828   0.73237
H          H       0.29486   0.77172   0.73237
H          H       0.29486   0.72828   0.76763
H          H       0.20514   0.77172   0.76763
H          H       0.04486   0.02172   0.01763
H          H       0.95514   0.97828   0.01763
H          H       0.95514   0.02172   0.98237
H          H       0.04486   0.97828   0.98237
H          H       0.20514   0.22828   0.23237
H          H       0.29486   0.27172   0.23237
H          H       0.29486   0.22828   0.26763
H          H       0.20514   0.27172   0.26763
H          H       0.54486   0.52172   0.01763
H          H       0.45514   0.47828   0.01763
H          H       0.45514   0.52172   0.98237
H          H       0.54486   0.47828   0.98237
H          H       0.70514   0.72828   0.23237
H          H       0.79486   0.77172   0.23237
H          H       0.79486   0.72828   0.26763
H          H       0.70514   0.77172   0.26763
H          H       0.54486   0.02172   0.51763
H          H       0.45514   0.97828   0.51763
H          H       0.45514   0.02172   0.48237
H          H       0.54486   0.97828   0.48237
H          H       0.70514   0.22828   0.73237
H          H       0.79486   0.27172   0.73237
H          H       0.79486   0.22828   0.76763
H          H       0.70514   0.27172   0.76763
H          H       0.06990   0.51971   0.44998
H          H       0.93010   0.48029   0.44998
H          H       0.93010   0.51971   0.55002
H          H       0.06990   0.48029   0.55002
H          H       0.18010   0.73029   0.80002
H          H       0.31990   0.76971   0.80002
H          H       0.31990   0.73029   0.69998
H          H       0.18010   0.76971   0.69998
H          H       0.06990   0.01971   0.94998
H          H       0.93010   0.98029   0.94998
H          H       0.93010   0.01971   0.05002
H          H       0.06990   0.98029   0.05002
H          H       0.18010   0.23029   0.30002
H          H       0.31990   0.26971   0.30002
H          H       0.31990   0.23029   0.19998
H          H       0.18010   0.26971   0.19998
H          H       0.56990   0.51971   0.94998
H          H       0.43010   0.48029   0.94998
H          H       0.43010   0.51971   0.05002
H          H       0.56990   0.48029   0.05002
H          H       0.68010   0.73029   0.30002
H          H       0.81990   0.76971   0.30002
H          H       0.81990   0.73029   0.19998
H          H       0.68010   0.76971   0.19998
H          H       0.56990   0.01971   0.44998
H          H       0.43010   0.98029   0.44998
H          H       0.43010   0.01971   0.55002
H          H       0.56990   0.98029   0.55002
H          H       0.68010   0.23029   0.80002
H          H       0.81990   0.26971   0.80002
H          H       0.81990   0.23029   0.69998
H          H       0.68010   0.26971   0.69998
H          H       0.05933   0.54773   0.48803
H          H       0.94067   0.45227   0.48803
H          H       0.94067   0.54773   0.51197
H          H       0.05933   0.45227   0.51197
H          H       0.19067   0.70227   0.76197
H          H       0.30933   0.79773   0.76197
H          H       0.30933   0.70227   0.73803
H          H       0.19067   0.79773   0.73803
H          H       0.05933   0.04773   0.98803
H          H       0.94067   0.95227   0.98803
H          H       0.94067   0.04773   0.01197
H          H       0.05933   0.95227   0.01197
H          H       0.19067   0.20227   0.26197
H          H       0.30933   0.29773   0.26197
H          H       0.30933   0.20227   0.23803
H          H       0.19067   0.29773   0.23803
H          H       0.55933   0.54773   0.98803
H          H       0.44067   0.45227   0.98803
H          H       0.44067   0.54773   0.01197
H          H       0.55933   0.45227   0.01197
H          H       0.69067   0.70227   0.26197
H          H       0.80933   0.79773   0.26197
H          H       0.80933   0.70227   0.23803
H          H       0.69067   0.79773   0.23803
H          H       0.55933   0.04773   0.48803
H          H       0.44067   0.95227   0.48803
H          H       0.44067   0.04773   0.51197
H          H       0.55933   0.95227   0.51197
H          H       0.69067   0.20227   0.76197
H          H       0.80933   0.29773   0.76197
H          H       0.80933   0.20227   0.73803
H          H       0.69067   0.29773   0.73803
C          C       0.25000   0.75000   0.25000
C          C       0.75000   0.25000   0.25000
C          C       0.75000   0.75000   0.75000
C          C       0.25000   0.25000   0.75000
C          C       0.00000   0.50000   0.00000
C          C       0.50000   0.00000   0.00000
C          C       0.50000   0.50000   0.50000
C          C       0.00000   0.00000   0.50000
