data_crystal

_cell_length_a    51.66780
_cell_length_b    51.64290
_cell_length_c    14.41150
_cell_angle_alpha 90.64800
_cell_angle_beta  89.91540
_cell_angle_gamma 59.98270

_space_group_name_Hall 'P 1'
_space_group_name_H-M_alt 'P 1'

loop_
_symmetry_equiv_pos_as_xyz
 'x,y,z'

loop_
_atom_site_label
_atom_site_type_symbol
_atom_site_fract_x
_atom_site_fract_y
_atom_site_fract_z
C          C       0.08787   0.96648   0.48998
C          C       0.05923   0.99277   0.48975
C          C       0.03284   0.99033   0.49204
C          C       0.03581   0.96123   0.49377
C          C       0.06442   0.93603   0.49030
C          C       0.09085   0.93807   0.48917
C          C       0.00418   0.01704   0.49190
C          C       0.00868   0.95876   0.49752
C          C       0.98003   0.98547   0.49550
C          C       0.97705   0.01454   0.49169
C          C       0.95364   0.98303   0.49662
C          C       0.95614   0.95435   0.49850
C          C       0.98399   0.92830   0.00121
C          C       0.00999   0.93111   0.00228
H          H       0.10774   0.96912   0.49117
H          H       0.93546   0.95316   0.49570
C          C       0.05669   0.02147   0.48586
C          C       0.02880   0.04754   0.48642
C          C       0.00283   0.04475   0.49123
H          H       0.07738   0.02258   0.48046
C          C       0.94846   0.03965   0.48627
C          C       0.92501   0.00928   0.49418
H          H       0.90512   0.00672   0.49787
C          C       0.92205   0.03758   0.48788
H          H       0.03187   0.91058   0.00713
H          H       0.06685   0.91364   0.48744
H          H       0.94603   0.06194   0.47935
H          H       0.98093   0.06536   0.49469
C          C       0.02589   0.07752   0.48041
C          C       0.99996   0.10194   0.44338
C          C       0.04897   0.08264   0.01069
C          C       0.99735   0.13003   0.43660
H          H       0.98167   0.09899   0.41642
C          C       0.04640   0.11071   0.00396
H          H       0.06920   0.06446   0.04237
C          C       0.02050   0.13500   0.46660
H          H       0.97704   0.14850   0.40609
H          H       0.06465   0.11408   0.02881
C          C       0.89224   0.06492   0.48269
C          C       0.86750   0.06378   0.44588
C          C       0.88760   0.09297   0.01422
C          C       0.83950   0.08946   0.44054
H          H       0.87015   0.04260   0.41839
C          C       0.85962   0.11867   0.00898
H          H       0.90602   0.09477   0.04596
C          C       0.83500   0.11740   0.47191
H          H       0.82070   0.08793   0.41046
H          H       0.85653   0.14019   0.03485
C          C       0.98667   0.89835   0.49970
C          C       0.01260   0.87316   0.46364
C          C       0.96320   0.89410   0.03177
C          C       0.01480   0.84517   0.45868
H          H       0.03121   0.87544   0.43580
C          C       0.96534   0.86614   0.02678
H          H       0.94293   0.91290   0.06301
C          C       0.99115   0.84111   0.48959
H          H       0.03514   0.82611   0.42863
H          H       0.94678   0.86340   0.05240
C          C       0.12061   0.91055   0.48633
C          C       0.12473   0.88300   0.01883
C          C       0.14585   0.91088   0.45003
C          C       0.15259   0.85708   0.01443
H          H       0.10602   0.88173   0.05060
C          C       0.17376   0.88497   0.44568
H          H       0.14366   0.93161   0.42191
C          C       0.17768   0.85750   0.47749
H          H       0.15526   0.83597   0.04084
H          H       0.19284   0.88600   0.41564
C          C       0.03376   0.19915   0.48840
C          C       0.06016   0.20097   0.48982
C          C       0.00577   0.22597   0.48804
C          C       0.05887   0.22853   0.48607
H          H       0.08196   0.18023   0.49202
C          C       0.00447   0.25354   0.48617
H          H       0.98482   0.22529   0.49146
C          C       0.03089   0.25532   0.48270
H          H       0.07981   0.22923   0.48795
H          H       0.98264   0.27427   0.48545
C          C       0.23945   0.77953   0.00836
C          C       0.23996   0.75194   0.01328
C          C       0.26690   0.77945   0.00898
C          C       0.26693   0.72499   0.01358
H          H       0.21871   0.75184   0.01500
C          C       0.29386   0.75254   0.01121
H          H       0.26718   0.80063   0.00985
C          C       0.29436   0.72492   0.01098
H          H       0.26671   0.70382   0.01814
H          H       0.31515   0.75256   0.01114
N          N       0.03670   0.17072   0.49333
N          N       0.02787   0.28384   0.48234
N          N       0.21154   0.80577   0.00937
N          N       0.32229   0.69879   0.01423
C          C       0.04733   0.28913   0.44412
H          H       0.06746   0.27144   0.40510
C          C       0.01742   0.16467   0.45766
H          H       0.99762   0.18146   0.41708
C          C       0.20704   0.83022   0.47164
H          H       0.22487   0.83189   0.43172
C          C       0.32729   0.67375   0.47788
H          H       0.30988   0.67140   0.43774
C          C       0.35672   0.64676   0.48568
C          C       0.36129   0.61874   0.45501
C          C       0.38123   0.64815   0.02317
C          C       0.38929   0.59309   0.46137
H          H       0.34261   0.61709   0.42448
C          C       0.40918   0.62250   0.02956
H          H       0.37803   0.66978   0.04833
C          C       0.41392   0.59437   0.49865
H          H       0.39200   0.57186   0.43406
H          H       0.42755   0.62437   0.06139
C          C       0.44378   0.56715   0.00439
C          C       0.46996   0.56875   0.00392
C          C       0.44632   0.53851   0.00928
C          C       0.49854   0.54245   0.00736
H          H       0.46902   0.59046   0.49882
C          C       0.47390   0.51201   0.00990
H          H       0.42561   0.53746   0.01286
C          C       0.50073   0.51372   0.00909
C          C       0.52497   0.54451   0.00765
C          C       0.47615   0.48250   0.01070
C          C       0.52970   0.48743   0.00932
C          C       0.55325   0.51893   0.00634
H          H       0.52252   0.56696   0.00934
C          C       0.50510   0.45619   0.01105
C          C       0.45083   0.47933   0.00955
C          C       0.53191   0.45794   0.01067
C          C       0.55504   0.49057   0.00630
C          C       0.58088   0.52093   0.00360
C          C       0.50732   0.42743   0.01129
C          C       0.45261   0.45099   0.01197
H          H       0.42855   0.49936   0.00560
C          C       0.55947   0.43146   0.01077
H          H       0.57733   0.47047   0.00282
C          C       0.60853   0.49733   0.03474
C          C       0.58048   0.54656   0.46859
C          C       0.48087   0.42539   0.01342
C          C       0.53594   0.40108   0.00771
C          C       0.42483   0.44923   0.01091
C          C       0.56208   0.40274   0.00675
H          H       0.58013   0.43261   0.01402
C          C       0.63455   0.49905   0.02977
H          H       0.60986   0.47731   0.06567
C          C       0.60643   0.54841   0.46411
H          H       0.55968   0.56526   0.44161
H          H       0.48325   0.40301   0.01681
H          H       0.53697   0.37927   0.00365
C          C       0.39735   0.47322   0.04390
C          C       0.42484   0.42365   0.47501
C          C       0.59214   0.37574   0.49973
C          C       0.63404   0.52460   0.49388
H          H       0.65572   0.48042   0.05502
H          H       0.60536   0.56856   0.43511
C          C       0.37106   0.47199   0.03945
H          H       0.39641   0.49319   0.07561
C          C       0.39858   0.42235   0.47064
H          H       0.44558   0.40462   0.44704
C          C       0.59767   0.34748   0.02983
C          C       0.61638   0.37760   0.46169
C          C       0.37111   0.44658   0.00198
H          H       0.34997   0.49094   0.06579
H          H       0.39927   0.40228   0.44072
C          C       0.62607   0.32234   0.02258
H          H       0.57964   0.34507   0.06187
C          C       0.64479   0.35251   0.45448
H          H       0.61301   0.39887   0.43435
C          C       0.65022   0.32437   0.48490
H          H       0.62992   0.30063   0.04741
H          H       0.66306   0.35474   0.42344
C          C       0.99344   0.81170   0.48086
N          N       0.97329   0.80680   0.01566
H          H       0.01331   0.79418   0.44046
C          C       0.97503   0.77888   0.00950
C          C       0.00234   0.75133   0.00834
C          C       0.94787   0.77845   0.00997
C          C       0.00227   0.72442   0.00466
H          H       0.02384   0.75089   0.01246
C          C       0.94780   0.75155   0.00438
H          H       0.92657   0.79975   0.01282
C          C       0.97512   0.72405   0.00003
H          H       0.02356   0.70308   0.00331
H          H       0.92631   0.75191   0.00545
N          N       0.97673   0.69616   0.49743
C          C       0.95669   0.69194   0.45820
H          H       0.93716   0.71007   0.42002
C          C       0.80534   0.14419   0.46596
N          N       0.79982   0.16917   0.00407
H          H       0.78800   0.14165   0.42606
C          C       0.77130   0.19461   0.00366
C          C       0.74471   0.19311   0.00881
C          C       0.76927   0.22294   0.00485
C          C       0.71701   0.21925   0.01199
H          H       0.74574   0.17133   0.01265
C          C       0.74155   0.24907   0.00617
H          H       0.78990   0.22420   0.00268
C          C       0.71491   0.24759   0.00821
H          H       0.69642   0.21795   0.01572
H          H       0.74063   0.27083   0.00781
N          N       0.68633   0.27292   0.01256
C          C       0.68019   0.29807   0.47625
C          C       0.01803   0.34410   0.48343
C          C       0.06738   0.32336   0.41481
C          C       0.01537   0.37231   0.48557
H          H       0.99972   0.34121   0.01061
C          C       0.06468   0.35158   0.41698
H          H       0.08791   0.30426   0.38582
C          C       0.03858   0.37678   0.45220
H          H       0.99496   0.39110   0.01622
H          H       0.08307   0.35405   0.38820
C          C       0.03578   0.40679   0.45394
C          C       0.06096   0.41013   0.45725
C          C       0.00714   0.43301   0.45251
C          C       0.05822   0.43893   0.45807
H          H       0.08356   0.39043   0.46040
C          C       0.00331   0.46180   0.45645
H          H       0.98743   0.43025   0.44738
C          C       0.02921   0.46513   0.45809
C          C       0.08417   0.44182   0.45888
C          C       0.97352   0.48874   0.45838
C          C       0.02684   0.49398   0.45975
C          C       0.08193   0.46989   0.46213
H          H       0.10620   0.42128   0.45576
C          C       0.97111   0.51761   0.45835
C          C       0.94738   0.48705   0.46068
C          C       0.99704   0.52090   0.45814
C          C       0.05297   0.49569   0.46353
C          C       0.10889   0.47305   0.46344
C          C       0.94208   0.54381   0.45864
C          C       0.91841   0.51279   0.45874
H          H       0.94903   0.46503   0.46472
C          C       0.99322   0.54965   0.45616
H          H       0.05134   0.51772   0.46846
C          C       0.10804   0.49906   0.42984
C          C       0.13635   0.45012   0.49795
C          C       0.91613   0.54088   0.45754
C          C       0.93936   0.57263   0.45994
C          C       0.89173   0.50913   0.45731
C          C       0.96459   0.57591   0.45843
H          H       0.01300   0.55233   0.45211
C          C       0.13340   0.50202   0.43073
H          H       0.08744   0.51714   0.39959
C          C       0.16171   0.45303   0.49884
H          H       0.13790   0.42978   0.02706
H          H       0.89410   0.56138   0.45453
H          H       0.91676   0.59239   0.46332
C          C       0.89376   0.48259   0.42136
C          C       0.86365   0.53167   0.49163
C          C       0.96223   0.60573   0.45968
C          C       0.16074   0.47907   0.46535
H          H       0.13202   0.52244   0.40287
H          H       0.18275   0.43500   0.02700
C          C       0.86904   0.47858   0.42094
H          H       0.91484   0.46486   0.39060
C          C       0.83889   0.52770   0.49122
H          H       0.86117   0.55251   0.02168
C          C       0.93667   0.63132   0.42602
C          C       0.98576   0.60945   0.49446
C          C       0.84115   0.50096   0.45639
H          H       0.87133   0.45771   0.39173
H          H       0.81734   0.54541   0.01941
C          C       0.93495   0.65912   0.42606
H          H       0.91797   0.62955   0.39649
C          C       0.98410   0.63719   0.49447
H          H       0.00566   0.59040   0.02455
C          C       0.95865   0.66262   0.45982
H          H       0.91492   0.67856   0.39797
H          H       0.00270   0.63940   0.02263
C          C       0.81548   0.49616   0.45604
N          N       0.79089   0.51456   0.49848
H          H       0.81871   0.47578   0.41675
C          C       0.76583   0.51083   0.00122
C          C       0.73866   0.53584   0.03158
C          C       0.76615   0.48385   0.47901
C          C       0.71234   0.53464   0.03519
H          H       0.73844   0.55656   0.05174
C          C       0.73997   0.48243   0.48429
H          H       0.78703   0.46363   0.45772
C          C       0.71257   0.50798   0.00970
H          H       0.69157   0.55426   0.06042
H          H       0.74032   0.46155   0.46531
N          N       0.68676   0.50557   0.01413
C          C       0.66124   0.52669   0.48628
H          H       0.65861   0.54746   0.45288
C          C       0.34352   0.44521   0.49369
N          N       0.31851   0.46593   0.02817
H          H       0.34545   0.42542   0.45387
C          C       0.29218   0.46449   0.02230
C          C       0.26468   0.49166   0.01844
C          C       0.29188   0.43724   0.02546
C          C       0.23777   0.49170   0.01213
H          H       0.26470   0.51295   0.01805
C          C       0.26493   0.43732   0.02099
H          H       0.31284   0.41586   0.03356
C          C       0.23755   0.46438   0.01129
H          H       0.21667   0.51320   0.00952
H          H       0.26486   0.41606   0.02302
N          N       0.21146   0.46255   0.00683
C          C       0.18749   0.48208   0.46587
H          H       0.18592   0.50172   0.42789
C          C       0.08787   0.96648   0.23998
C          C       0.05923   0.99277   0.23975
C          C       0.03284   0.99033   0.24204
C          C       0.03581   0.96123   0.24377
C          C       0.06442   0.93603   0.24030
C          C       0.09085   0.93807   0.23917
C          C       0.00418   0.01704   0.24189
C          C       0.00868   0.95876   0.24752
C          C       0.98003   0.98547   0.24550
C          C       0.97705   0.01454   0.24169
C          C       0.95364   0.98303   0.24662
C          C       0.95614   0.95435   0.24850
C          C       0.98399   0.92830   0.25121
C          C       0.00999   0.93111   0.25228
H          H       0.10774   0.96912   0.24116
H          H       0.93546   0.95316   0.24570
C          C       0.05669   0.02147   0.23587
C          C       0.02880   0.04754   0.23642
C          C       0.00283   0.04475   0.24122
H          H       0.07738   0.02258   0.23047
C          C       0.94846   0.03965   0.23627
C          C       0.92501   0.00928   0.24419
H          H       0.90512   0.00672   0.24787
C          C       0.92205   0.03758   0.23788
H          H       0.03187   0.91058   0.25713
H          H       0.06685   0.91364   0.23744
H          H       0.94603   0.06194   0.22935
H          H       0.98093   0.06536   0.24469
C          C       0.02589   0.07752   0.23041
C          C       0.99996   0.10194   0.19337
C          C       0.04897   0.08264   0.26069
C          C       0.99735   0.13003   0.18660
H          H       0.98167   0.09899   0.16642
C          C       0.04640   0.11071   0.25396
H          H       0.06920   0.06446   0.29237
C          C       0.02050   0.13500   0.21660
H          H       0.97704   0.14850   0.15610
H          H       0.06465   0.11408   0.27881
C          C       0.89224   0.06492   0.23270
C          C       0.86750   0.06378   0.19588
C          C       0.88760   0.09297   0.26421
C          C       0.83950   0.08946   0.19053
H          H       0.87015   0.04260   0.16839
C          C       0.85962   0.11867   0.25898
H          H       0.90602   0.09477   0.29596
C          C       0.83500   0.11740   0.22191
H          H       0.82070   0.08793   0.16045
H          H       0.85653   0.14019   0.28486
C          C       0.98667   0.89835   0.24970
C          C       0.01260   0.87316   0.21364
C          C       0.96320   0.89410   0.28177
C          C       0.01480   0.84517   0.20868
H          H       0.03121   0.87544   0.18581
C          C       0.96534   0.86614   0.27677
H          H       0.94293   0.91290   0.31300
C          C       0.99115   0.84111   0.23959
H          H       0.03514   0.82611   0.17863
H          H       0.94678   0.86340   0.30240
C          C       0.12061   0.91055   0.23633
C          C       0.12473   0.88300   0.26883
C          C       0.14585   0.91088   0.20003
C          C       0.15259   0.85708   0.26443
H          H       0.10602   0.88173   0.30061
C          C       0.17376   0.88497   0.19568
H          H       0.14366   0.93161   0.17191
C          C       0.17768   0.85750   0.22749
H          H       0.15526   0.83597   0.29085
H          H       0.19284   0.88600   0.16564
C          C       0.03376   0.19915   0.23841
C          C       0.06016   0.20097   0.23982
C          C       0.00577   0.22597   0.23804
C          C       0.05887   0.22853   0.23607
H          H       0.08196   0.18023   0.24202
C          C       0.00447   0.25354   0.23617
H          H       0.98482   0.22529   0.24146
C          C       0.03089   0.25532   0.23270
H          H       0.07981   0.22923   0.23794
H          H       0.98264   0.27427   0.23545
C          C       0.23945   0.77953   0.25836
C          C       0.23996   0.75194   0.26327
C          C       0.26690   0.77945   0.25898
C          C       0.26693   0.72499   0.26358
H          H       0.21871   0.75184   0.26500
C          C       0.29386   0.75254   0.26121
H          H       0.26718   0.80063   0.25986
C          C       0.29436   0.72492   0.26098
H          H       0.26671   0.70382   0.26814
H          H       0.31515   0.75256   0.26114
N          N       0.03670   0.17072   0.24333
N          N       0.02787   0.28384   0.23234
N          N       0.21154   0.80577   0.25937
N          N       0.32229   0.69879   0.26423
C          C       0.04733   0.28913   0.19412
H          H       0.06746   0.27144   0.15510
C          C       0.01742   0.16467   0.20766
H          H       0.99762   0.18146   0.16709
C          C       0.20704   0.83022   0.22164
H          H       0.22487   0.83189   0.18171
C          C       0.32729   0.67375   0.22788
H          H       0.30988   0.67140   0.18774
C          C       0.36129   0.61874   0.20501
C          C       0.38123   0.64815   0.27318
C          C       0.38929   0.59309   0.21137
H          H       0.34261   0.61709   0.17448
C          C       0.40918   0.62250   0.27956
H          H       0.37803   0.66978   0.29833
C          C       0.41392   0.59437   0.24865
H          H       0.39200   0.57186   0.18406
H          H       0.42755   0.62437   0.31139
C          C       0.44378   0.56715   0.25439
C          C       0.46996   0.56875   0.25392
C          C       0.44632   0.53851   0.25928
C          C       0.49854   0.54245   0.25736
H          H       0.46902   0.59046   0.24882
C          C       0.47390   0.51201   0.25990
H          H       0.42561   0.53746   0.26287
C          C       0.50073   0.51372   0.25909
C          C       0.52497   0.54451   0.25765
C          C       0.47615   0.48250   0.26071
C          C       0.52970   0.48743   0.25932
C          C       0.55325   0.51893   0.25634
H          H       0.52252   0.56696   0.25934
C          C       0.50510   0.45619   0.26105
C          C       0.45083   0.47933   0.25955
C          C       0.53191   0.45794   0.26067
C          C       0.55504   0.49057   0.25631
C          C       0.58088   0.52093   0.25360
C          C       0.50732   0.42743   0.26129
C          C       0.45261   0.45099   0.26197
H          H       0.42855   0.49936   0.25561
C          C       0.55947   0.43146   0.26077
H          H       0.57733   0.47047   0.25282
C          C       0.60853   0.49733   0.28475
C          C       0.58048   0.54656   0.21859
C          C       0.48087   0.42539   0.26343
C          C       0.53594   0.40108   0.25771
C          C       0.42483   0.44923   0.26091
C          C       0.56208   0.40274   0.25675
H          H       0.58013   0.43261   0.26402
C          C       0.63455   0.49905   0.27977
H          H       0.60986   0.47731   0.31567
C          C       0.60643   0.54841   0.21411
H          H       0.55968   0.56526   0.19161
H          H       0.48325   0.40301   0.26681
H          H       0.53697   0.37927   0.25365
C          C       0.39735   0.47322   0.29391
C          C       0.42484   0.42365   0.22501
C          C       0.59214   0.37574   0.24973
C          C       0.63404   0.52460   0.24388
H          H       0.65572   0.48042   0.30501
H          H       0.60536   0.56856   0.18512
C          C       0.37106   0.47199   0.28946
H          H       0.39641   0.49319   0.32561
C          C       0.39858   0.42235   0.22065
H          H       0.44558   0.40462   0.19704
C          C       0.59767   0.34748   0.27982
C          C       0.61638   0.37760   0.21169
C          C       0.37111   0.44658   0.25198
H          H       0.34997   0.49094   0.31579
H          H       0.39927   0.40228   0.19071
C          C       0.62607   0.32234   0.27258
H          H       0.57964   0.34507   0.31187
C          C       0.64479   0.35251   0.20448
H          H       0.61301   0.39887   0.18435
C          C       0.65022   0.32437   0.23491
H          H       0.62992   0.30063   0.29740
H          H       0.66306   0.35474   0.17344
C          C       0.99344   0.81170   0.23086
N          N       0.97329   0.80680   0.26566
H          H       0.01331   0.79418   0.19046
C          C       0.97503   0.77888   0.25950
C          C       0.00234   0.75133   0.25833
C          C       0.94787   0.77845   0.25997
C          C       0.00227   0.72442   0.25466
H          H       0.02384   0.75089   0.26246
C          C       0.94780   0.75155   0.25438
H          H       0.92657   0.79975   0.26282
C          C       0.97512   0.72405   0.25003
H          H       0.02356   0.70308   0.25331
H          H       0.92631   0.75191   0.25545
N          N       0.97673   0.69616   0.24743
C          C       0.95669   0.69194   0.20821
H          H       0.93716   0.71007   0.17003
C          C       0.80534   0.14419   0.21596
N          N       0.79982   0.16917   0.25407
H          H       0.78800   0.14165   0.17606
C          C       0.77130   0.19461   0.25366
C          C       0.74471   0.19311   0.25881
C          C       0.76927   0.22294   0.25485
C          C       0.71701   0.21925   0.26199
H          H       0.74574   0.17133   0.26266
C          C       0.74155   0.24907   0.25616
H          H       0.78990   0.22420   0.25268
C          C       0.71491   0.24759   0.25821
H          H       0.69642   0.21795   0.26572
H          H       0.74063   0.27083   0.25781
N          N       0.68633   0.27292   0.26255
C          C       0.68019   0.29807   0.22625
H          H       0.69703   0.30115   0.18545
C          C       0.04411   0.31902   0.19782
C          C       0.01803   0.34410   0.23343
C          C       0.06738   0.32336   0.16481
C          C       0.01537   0.37231   0.23558
H          H       0.99972   0.34121   0.26061
C          C       0.06468   0.35158   0.16698
H          H       0.08791   0.30426   0.13583
C          C       0.03858   0.37678   0.20220
H          H       0.99496   0.39110   0.26622
H          H       0.08307   0.35405   0.13820
C          C       0.03578   0.40679   0.20394
C          C       0.06096   0.41013   0.20725
C          C       0.00714   0.43301   0.20251
C          C       0.05822   0.43893   0.20807
H          H       0.08356   0.39043   0.21040
C          C       0.00331   0.46180   0.20644
H          H       0.98743   0.43025   0.19738
C          C       0.02921   0.46513   0.20808
C          C       0.08417   0.44182   0.20888
C          C       0.97352   0.48874   0.20838
C          C       0.02684   0.49398   0.20975
C          C       0.08193   0.46989   0.21213
H          H       0.10620   0.42128   0.20575
C          C       0.97111   0.51761   0.20835
C          C       0.94738   0.48705   0.21068
C          C       0.99704   0.52090   0.20813
C          C       0.05297   0.49569   0.21354
C          C       0.10889   0.47305   0.21344
C          C       0.94208   0.54381   0.20863
C          C       0.91841   0.51279   0.20874
H          H       0.94903   0.46503   0.21472
C          C       0.99322   0.54965   0.20616
H          H       0.05134   0.51772   0.21846
C          C       0.10804   0.49906   0.17984
C          C       0.13635   0.45012   0.24795
C          C       0.91613   0.54088   0.20755
C          C       0.93936   0.57263   0.20994
C          C       0.89173   0.50913   0.20730
C          C       0.96459   0.57591   0.20843
H          H       0.01300   0.55233   0.20211
C          C       0.13340   0.50202   0.18073
H          H       0.08744   0.51714   0.14959
C          C       0.16171   0.45303   0.24885
H          H       0.13790   0.42978   0.27706
H          H       0.89410   0.56138   0.20453
H          H       0.91676   0.59239   0.21333
C          C       0.89376   0.48259   0.17136
C          C       0.86365   0.53167   0.24163
C          C       0.96223   0.60573   0.20968
C          C       0.16074   0.47907   0.21535
H          H       0.13202   0.52244   0.15287
H          H       0.18275   0.43500   0.27699
C          C       0.86904   0.47858   0.17094
H          H       0.91484   0.46486   0.14060
C          C       0.83889   0.52770   0.24122
H          H       0.86117   0.55251   0.27168
C          C       0.93667   0.63132   0.17603
C          C       0.98576   0.60945   0.24446
C          C       0.84115   0.50096   0.20639
H          H       0.87133   0.45771   0.14173
H          H       0.81734   0.54541   0.26941
C          C       0.93495   0.65912   0.17606
H          H       0.91797   0.62955   0.14649
C          C       0.98410   0.63719   0.24447
H          H       0.00566   0.59040   0.27454
C          C       0.95865   0.66262   0.20982
H          H       0.91492   0.67856   0.14797
H          H       0.00270   0.63940   0.27264
C          C       0.81548   0.49616   0.20605
N          N       0.79089   0.51456   0.24848
H          H       0.81871   0.47578   0.16675
C          C       0.76583   0.51083   0.25122
C          C       0.73866   0.53584   0.28158
C          C       0.76615   0.48385   0.22900
C          C       0.71234   0.53464   0.28519
H          H       0.73844   0.55656   0.30173
C          C       0.73997   0.48243   0.23429
H          H       0.78703   0.46363   0.20772
C          C       0.71257   0.50798   0.25970
H          H       0.69157   0.55426   0.31041
H          H       0.74032   0.46155   0.21532
N          N       0.68676   0.50557   0.26412
C          C       0.66124   0.52669   0.23628
H          H       0.65861   0.54746   0.20287
C          C       0.34352   0.44521   0.24369
N          N       0.31851   0.46593   0.27817
H          H       0.34545   0.42542   0.20386
C          C       0.29218   0.46449   0.27230
C          C       0.26468   0.49166   0.26844
C          C       0.29188   0.43724   0.27546
C          C       0.23777   0.49170   0.26213
H          H       0.26470   0.51295   0.26805
C          C       0.26493   0.43732   0.27099
H          H       0.31284   0.41586   0.28356
C          C       0.23755   0.46438   0.26129
H          H       0.21667   0.51320   0.25952
H          H       0.26486   0.41606   0.27302
N          N       0.21146   0.46255   0.25683
C          C       0.18749   0.48208   0.21587
H          H       0.18592   0.50172   0.17788
C          C       0.08787   0.96648   0.98998
C          C       0.05923   0.99277   0.98975
C          C       0.03284   0.99033   0.99204
C          C       0.03581   0.96123   0.99377
C          C       0.06442   0.93603   0.99030
C          C       0.09085   0.93807   0.98916
C          C       0.00418   0.01704   0.99189
C          C       0.00868   0.95876   0.99752
C          C       0.98003   0.98547   0.99550
C          C       0.97705   0.01454   0.99168
C          C       0.95364   0.98303   0.99662
C          C       0.95614   0.95435   0.99850
C          C       0.98399   0.92830   0.50121
C          C       0.00999   0.93111   0.50228
H          H       0.10774   0.96912   0.99116
H          H       0.93546   0.95316   0.99570
C          C       0.05669   0.02147   0.98586
C          C       0.02880   0.04754   0.98642
C          C       0.00283   0.04475   0.99123
H          H       0.07738   0.02258   0.98046
C          C       0.94846   0.03965   0.98627
C          C       0.92501   0.00928   0.99419
H          H       0.90512   0.00672   0.99787
C          C       0.92205   0.03758   0.98788
H          H       0.03187   0.91058   0.50713
H          H       0.06685   0.91364   0.98744
H          H       0.94603   0.06194   0.97935
H          H       0.98093   0.06536   0.99469
C          C       0.02589   0.07752   0.98041
C          C       0.99996   0.10194   0.94338
C          C       0.04897   0.08264   0.51068
C          C       0.99735   0.13003   0.93660
H          H       0.98167   0.09899   0.91642
C          C       0.04640   0.11071   0.50396
H          H       0.06920   0.06446   0.54237
C          C       0.02050   0.13500   0.96660
H          H       0.97704   0.14850   0.90610
H          H       0.06465   0.11408   0.52881
C          C       0.89224   0.06492   0.98269
C          C       0.86750   0.06378   0.94588
C          C       0.88760   0.09297   0.51421
C          C       0.83950   0.08946   0.94053
H          H       0.87015   0.04260   0.91839
C          C       0.85962   0.11867   0.50898
H          H       0.90602   0.09477   0.54597
C          C       0.83500   0.11740   0.97191
H          H       0.82070   0.08793   0.91046
H          H       0.85653   0.14019   0.53485
C          C       0.98667   0.89835   0.99970
C          C       0.01260   0.87316   0.96364
C          C       0.96320   0.89410   0.53177
C          C       0.01480   0.84517   0.95868
H          H       0.03121   0.87544   0.93580
C          C       0.96534   0.86614   0.52677
H          H       0.94293   0.91290   0.56300
C          C       0.99115   0.84111   0.98959
H          H       0.03514   0.82611   0.92864
H          H       0.94678   0.86340   0.55240
C          C       0.12061   0.91055   0.98633
C          C       0.12473   0.88300   0.51883
C          C       0.14585   0.91088   0.95004
C          C       0.15259   0.85708   0.51443
H          H       0.10602   0.88173   0.55061
C          C       0.17376   0.88497   0.94568
H          H       0.14366   0.93161   0.92191
C          C       0.17768   0.85750   0.97749
H          H       0.15526   0.83597   0.54085
H          H       0.19284   0.88600   0.91564
C          C       0.03376   0.19915   0.98840
C          C       0.06016   0.20097   0.98982
C          C       0.00577   0.22597   0.98804
C          C       0.05887   0.22853   0.98607
H          H       0.08196   0.18023   0.99202
C          C       0.00447   0.25354   0.98617
H          H       0.98482   0.22529   0.99146
C          C       0.03089   0.25532   0.98270
H          H       0.07981   0.22923   0.98794
H          H       0.98264   0.27427   0.98545
C          C       0.23945   0.77953   0.50836
C          C       0.23996   0.75194   0.51328
C          C       0.26690   0.77945   0.50898
C          C       0.26693   0.72499   0.51358
H          H       0.21871   0.75184   0.51500
C          C       0.29386   0.75254   0.51121
H          H       0.26718   0.80063   0.50986
C          C       0.29436   0.72492   0.51098
H          H       0.26671   0.70382   0.51814
H          H       0.31515   0.75256   0.51114
N          N       0.03670   0.17072   0.99333
N          N       0.02787   0.28384   0.98234
N          N       0.21154   0.80577   0.50936
N          N       0.32229   0.69879   0.51423
C          C       0.04733   0.28913   0.94412
H          H       0.06746   0.27144   0.90510
C          C       0.01742   0.16467   0.95766
H          H       0.99762   0.18146   0.91709
C          C       0.20704   0.83022   0.97164
H          H       0.22487   0.83189   0.93171
C          C       0.32729   0.67375   0.97788
H          H       0.30988   0.67140   0.93774
C          C       0.35672   0.64676   0.98568
C          C       0.36129   0.61874   0.95501
C          C       0.38123   0.64815   0.52318
C          C       0.38929   0.59309   0.96137
H          H       0.34261   0.61709   0.92448
C          C       0.40918   0.62250   0.52956
H          H       0.37803   0.66978   0.54833
C          C       0.41392   0.59437   0.99865
H          H       0.39200   0.57186   0.93406
H          H       0.42755   0.62437   0.56139
C          C       0.44378   0.56715   0.50439
C          C       0.46996   0.56875   0.50392
C          C       0.44632   0.53851   0.50928
C          C       0.49854   0.54245   0.50736
H          H       0.46902   0.59046   0.99882
C          C       0.47390   0.51201   0.50990
H          H       0.42561   0.53746   0.51287
C          C       0.50073   0.51372   0.50909
C          C       0.52497   0.54451   0.50765
C          C       0.47615   0.48250   0.51070
C          C       0.52970   0.48743   0.50931
C          C       0.55325   0.51893   0.50634
H          H       0.52252   0.56696   0.50934
C          C       0.50510   0.45619   0.51105
C          C       0.45083   0.47933   0.50955
C          C       0.53191   0.45794   0.51067
C          C       0.55504   0.49057   0.50631
C          C       0.58088   0.52093   0.50360
C          C       0.50732   0.42743   0.51129
C          C       0.45261   0.45099   0.51197
H          H       0.42855   0.49936   0.50560
C          C       0.55947   0.43146   0.51077
H          H       0.57733   0.47047   0.50282
C          C       0.60853   0.49733   0.53475
C          C       0.58048   0.54656   0.96859
C          C       0.48087   0.42539   0.51343
C          C       0.53594   0.40108   0.50770
C          C       0.42483   0.44923   0.51091
C          C       0.56208   0.40274   0.50675
H          H       0.58013   0.43261   0.51402
C          C       0.63455   0.49905   0.52977
H          H       0.60986   0.47731   0.56567
C          C       0.60643   0.54841   0.96411
H          H       0.55968   0.56526   0.94161
H          H       0.48325   0.40301   0.51681
H          H       0.53697   0.37927   0.50365
C          C       0.39735   0.47322   0.54390
C          C       0.42484   0.42365   0.97501
C          C       0.59214   0.37574   0.99973
C          C       0.63404   0.52460   0.99388
H          H       0.65572   0.48042   0.55502
H          H       0.60536   0.56856   0.93512
C          C       0.37106   0.47199   0.53946
H          H       0.39641   0.49319   0.57561
C          C       0.39858   0.42235   0.97065
H          H       0.44558   0.40462   0.94704
C          C       0.59767   0.34748   0.52982
C          C       0.61638   0.37760   0.96169
C          C       0.37111   0.44658   0.50198
H          H       0.34997   0.49094   0.56579
H          H       0.39927   0.40228   0.94072
C          C       0.62607   0.32234   0.52258
H          H       0.57964   0.34507   0.56186
C          C       0.64479   0.35251   0.95448
H          H       0.61301   0.39887   0.93436
C          C       0.65022   0.32437   0.98491
H          H       0.62992   0.30063   0.54741
H          H       0.66306   0.35474   0.92344
C          C       0.99344   0.81170   0.98086
N          N       0.97329   0.80680   0.51566
H          H       0.01331   0.79418   0.94046
C          C       0.97503   0.77888   0.50950
C          C       0.00234   0.75133   0.50833
C          C       0.94787   0.77845   0.50997
C          C       0.00227   0.72442   0.50466
H          H       0.02384   0.75089   0.51246
C          C       0.94780   0.75155   0.50438
H          H       0.92657   0.79975   0.51282
C          C       0.97512   0.72405   0.50003
H          H       0.02356   0.70308   0.50331
H          H       0.92631   0.75191   0.50545
N          N       0.97673   0.69616   0.99743
C          C       0.95669   0.69194   0.95820
H          H       0.93716   0.71007   0.92003
C          C       0.80534   0.14419   0.96596
N          N       0.79982   0.16917   0.50407
H          H       0.78800   0.14165   0.92606
C          C       0.77130   0.19461   0.50366
C          C       0.74471   0.19311   0.50881
C          C       0.76927   0.22294   0.50486
C          C       0.71701   0.21925   0.51199
H          H       0.74574   0.17133   0.51265
C          C       0.74155   0.24907   0.50616
H          H       0.78990   0.22420   0.50269
C          C       0.71491   0.24759   0.50821
H          H       0.69642   0.21795   0.51572
H          H       0.74063   0.27083   0.50781
N          N       0.68633   0.27292   0.51255
C          C       0.68019   0.29807   0.97625
C          C       0.01803   0.34410   0.98343
C          C       0.06738   0.32336   0.91482
C          C       0.01537   0.37231   0.98558
H          H       0.99972   0.34121   0.51061
C          C       0.06468   0.35158   0.91698
H          H       0.08791   0.30426   0.88582
C          C       0.03858   0.37678   0.95220
H          H       0.99496   0.39110   0.51622
H          H       0.08307   0.35405   0.88820
C          C       0.03578   0.40679   0.95394
C          C       0.06096   0.41013   0.95725
C          C       0.00714   0.43301   0.95251
C          C       0.05822   0.43893   0.95807
H          H       0.08356   0.39043   0.96040
C          C       0.00331   0.46180   0.95645
H          H       0.98743   0.43025   0.94739
C          C       0.02921   0.46513   0.95808
C          C       0.08417   0.44182   0.95888
C          C       0.97352   0.48874   0.95838
C          C       0.02684   0.49398   0.95975
C          C       0.08193   0.46989   0.96213
H          H       0.10620   0.42128   0.95576
C          C       0.97111   0.51761   0.95835
C          C       0.94738   0.48705   0.96068
C          C       0.99704   0.52090   0.95814
C          C       0.05297   0.49569   0.96353
C          C       0.10889   0.47305   0.96345
C          C       0.94208   0.54381   0.95864
C          C       0.91841   0.51279   0.95874
H          H       0.94903   0.46503   0.96473
C          C       0.99322   0.54965   0.95616
H          H       0.05134   0.51772   0.96845
C          C       0.10804   0.49906   0.92984
C          C       0.13635   0.45012   0.99795
C          C       0.91613   0.54088   0.95754
C          C       0.93936   0.57263   0.95994
C          C       0.89173   0.50913   0.95731
C          C       0.96459   0.57591   0.95843
H          H       0.01300   0.55233   0.95211
C          C       0.13340   0.50202   0.93073
H          H       0.08744   0.51714   0.89959
C          C       0.16171   0.45303   0.99885
H          H       0.13790   0.42978   0.52706
H          H       0.89410   0.56138   0.95452
H          H       0.91676   0.59239   0.96332
C          C       0.89376   0.48259   0.92137
C          C       0.86365   0.53167   0.99164
C          C       0.96223   0.60573   0.95968
C          C       0.16074   0.47907   0.96534
H          H       0.13202   0.52244   0.90287
H          H       0.18275   0.43500   0.52699
C          C       0.86904   0.47858   0.92093
H          H       0.91484   0.46486   0.89060
C          C       0.83889   0.52770   0.99122
H          H       0.86117   0.55251   0.52168
C          C       0.93667   0.63132   0.92602
C          C       0.98576   0.60945   0.99447
C          C       0.84115   0.50096   0.95639
H          H       0.87133   0.45771   0.89173
H          H       0.81734   0.54541   0.51941
C          C       0.93495   0.65912   0.92606
H          H       0.91797   0.62955   0.89650
C          C       0.98410   0.63719   0.99447
H          H       0.00566   0.59040   0.52455
C          C       0.95865   0.66262   0.95982
H          H       0.91492   0.67856   0.89797
H          H       0.00270   0.63940   0.52263
C          C       0.81548   0.49616   0.95604
N          N       0.79089   0.51456   0.99848
H          H       0.81871   0.47578   0.91675
C          C       0.76583   0.51083   0.50123
C          C       0.73866   0.53584   0.53158
C          C       0.76615   0.48385   0.97901
C          C       0.71234   0.53464   0.53519
H          H       0.73844   0.55656   0.55173
C          C       0.73997   0.48243   0.98429
H          H       0.78703   0.46363   0.95772
C          C       0.71257   0.50798   0.50970
H          H       0.69157   0.55426   0.56042
H          H       0.74032   0.46155   0.96531
N          N       0.68676   0.50557   0.51413
C          C       0.66124   0.52669   0.98628
H          H       0.65861   0.54746   0.95287
C          C       0.34352   0.44521   0.99369
N          N       0.31851   0.46593   0.52817
H          H       0.34545   0.42542   0.95387
C          C       0.29218   0.46449   0.52230
C          C       0.26468   0.49166   0.51845
C          C       0.29188   0.43724   0.52546
C          C       0.23777   0.49170   0.51213
H          H       0.26470   0.51295   0.51805
C          C       0.26493   0.43732   0.52099
H          H       0.31284   0.41586   0.53356
C          C       0.23755   0.46438   0.51129
H          H       0.21667   0.51320   0.50952
H          H       0.26486   0.41606   0.52302
N          N       0.21146   0.46255   0.50683
C          C       0.18749   0.48208   0.96587
H          H       0.18592   0.50172   0.92788
C          C       0.08787   0.96648   0.73998
C          C       0.05923   0.99277   0.73975
C          C       0.03284   0.99033   0.74204
C          C       0.03581   0.96123   0.74377
C          C       0.06442   0.93603   0.74030
C          C       0.09085   0.93807   0.73916
C          C       0.00418   0.01704   0.74189
C          C       0.00868   0.95876   0.74752
C          C       0.98003   0.98547   0.74550
C          C       0.97705   0.01454   0.74169
C          C       0.95364   0.98303   0.74662
C          C       0.95614   0.95435   0.74850
C          C       0.98399   0.92830   0.75121
C          C       0.00999   0.93111   0.75228
H          H       0.10774   0.96912   0.74116
H          H       0.93546   0.95316   0.74570
C          C       0.05669   0.02147   0.73586
C          C       0.02880   0.04754   0.73642
C          C       0.00283   0.04475   0.74122
H          H       0.07738   0.02258   0.73047
C          C       0.94846   0.03965   0.73626
C          C       0.92501   0.00928   0.74419
H          H       0.90512   0.00672   0.74787
C          C       0.92205   0.03758   0.73788
H          H       0.03187   0.91058   0.75713
H          H       0.06685   0.91364   0.73744
H          H       0.94603   0.06194   0.72935
H          H       0.98093   0.06536   0.74469
C          C       0.02589   0.07752   0.73041
C          C       0.99996   0.10194   0.69338
C          C       0.04897   0.08264   0.76069
C          C       0.99735   0.13003   0.68660
H          H       0.98167   0.09899   0.66642
C          C       0.04640   0.11071   0.75396
H          H       0.06920   0.06446   0.79237
C          C       0.02050   0.13500   0.71660
H          H       0.97704   0.14850   0.65609
H          H       0.06465   0.11408   0.77881
C          C       0.89224   0.06492   0.73269
C          C       0.86750   0.06378   0.69588
C          C       0.88760   0.09297   0.76421
C          C       0.83950   0.08946   0.69054
H          H       0.87015   0.04260   0.66839
C          C       0.85962   0.11867   0.75897
H          H       0.90602   0.09477   0.79596
C          C       0.83500   0.11740   0.72191
H          H       0.82070   0.08793   0.66046
H          H       0.85653   0.14019   0.78485
C          C       0.98667   0.89835   0.74970
C          C       0.01260   0.87316   0.71364
C          C       0.96320   0.89410   0.78177
C          C       0.01480   0.84517   0.70868
H          H       0.03121   0.87544   0.68580
C          C       0.96534   0.86614   0.77677
H          H       0.94293   0.91290   0.81301
C          C       0.99115   0.84111   0.73959
H          H       0.03514   0.82611   0.67863
H          H       0.94678   0.86340   0.80241
C          C       0.12061   0.91055   0.73633
C          C       0.12473   0.88300   0.76883
C          C       0.14585   0.91088   0.70004
C          C       0.15259   0.85708   0.76443
H          H       0.10602   0.88173   0.80061
C          C       0.17376   0.88497   0.69568
H          H       0.14366   0.93161   0.67191
C          C       0.17768   0.85750   0.72749
H          H       0.15526   0.83597   0.79085
H          H       0.19284   0.88600   0.66564
C          C       0.03376   0.19915   0.73840
C          C       0.06016   0.20097   0.73982
C          C       0.00577   0.22597   0.73804
C          C       0.05887   0.22853   0.73607
H          H       0.08196   0.18023   0.74202
C          C       0.00447   0.25354   0.73617
H          H       0.98482   0.22529   0.74146
C          C       0.03089   0.25532   0.73270
H          H       0.07981   0.22923   0.73795
H          H       0.98264   0.27427   0.73545
C          C       0.23945   0.77953   0.75836
C          C       0.23996   0.75194   0.76328
C          C       0.26690   0.77945   0.75898
C          C       0.26693   0.72499   0.76358
H          H       0.21871   0.75184   0.76500
C          C       0.29386   0.75254   0.76121
H          H       0.26718   0.80063   0.75986
C          C       0.29436   0.72492   0.76097
H          H       0.26671   0.70382   0.76814
H          H       0.31515   0.75256   0.76114
N          N       0.03670   0.17072   0.74333
N          N       0.02787   0.28384   0.73234
N          N       0.21154   0.80577   0.75936
N          N       0.32229   0.69879   0.76423
C          C       0.04733   0.28913   0.69412
H          H       0.06746   0.27144   0.65510
C          C       0.01742   0.16467   0.70766
H          H       0.99762   0.18146   0.66709
C          C       0.20704   0.83022   0.72164
H          H       0.22487   0.83189   0.68171
C          C       0.32729   0.67375   0.72788
H          H       0.30988   0.67140   0.68774
C          C       0.36129   0.61874   0.70501
C          C       0.38123   0.64815   0.77317
C          C       0.38929   0.59309   0.71137
H          H       0.34261   0.61709   0.67448
C          C       0.40918   0.62250   0.77956
H          H       0.37803   0.66978   0.79833
C          C       0.41392   0.59437   0.74865
H          H       0.39200   0.57186   0.68406
H          H       0.42755   0.62437   0.81139
C          C       0.44378   0.56715   0.75439
C          C       0.46996   0.56875   0.75392
C          C       0.44632   0.53851   0.75928
C          C       0.49854   0.54245   0.75736
H          H       0.46902   0.59046   0.74882
C          C       0.47390   0.51201   0.75990
H          H       0.42561   0.53746   0.76287
C          C       0.50073   0.51372   0.75909
C          C       0.52497   0.54451   0.75765
C          C       0.47615   0.48250   0.76070
C          C       0.52970   0.48743   0.75931
C          C       0.55325   0.51893   0.75635
H          H       0.52252   0.56696   0.75934
C          C       0.50510   0.45619   0.76105
C          C       0.45083   0.47933   0.75955
C          C       0.53191   0.45794   0.76067
C          C       0.55504   0.49057   0.75631
C          C       0.58088   0.52093   0.75360
C          C       0.50732   0.42743   0.76129
C          C       0.45261   0.45099   0.76197
H          H       0.42855   0.49936   0.75560
C          C       0.55947   0.43146   0.76077
H          H       0.57733   0.47047   0.75282
C          C       0.60853   0.49733   0.78475
C          C       0.58048   0.54656   0.71859
C          C       0.48087   0.42539   0.76343
C          C       0.53594   0.40108   0.75770
C          C       0.42483   0.44923   0.76091
C          C       0.56208   0.40274   0.75675
H          H       0.58013   0.43261   0.76402
C          C       0.63455   0.49905   0.77977
H          H       0.60986   0.47731   0.81567
C          C       0.60643   0.54841   0.71411
H          H       0.55968   0.56526   0.69161
H          H       0.48325   0.40301   0.76681
H          H       0.53697   0.37927   0.75365
C          C       0.39735   0.47322   0.79390
C          C       0.42484   0.42365   0.72501
C          C       0.59214   0.37574   0.74973
C          C       0.63404   0.52460   0.74388
H          H       0.65572   0.48042   0.80501
H          H       0.60536   0.56856   0.68511
C          C       0.37106   0.47199   0.78946
H          H       0.39641   0.49319   0.82561
C          C       0.39858   0.42235   0.72065
H          H       0.44558   0.40462   0.69704
C          C       0.59767   0.34748   0.77982
C          C       0.61638   0.37760   0.71168
C          C       0.37111   0.44658   0.75198
H          H       0.34997   0.49094   0.81579
H          H       0.39927   0.40228   0.69071
C          C       0.62607   0.32234   0.77258
H          H       0.57964   0.34507   0.81187
C          C       0.64479   0.35251   0.70448
H          H       0.61301   0.39887   0.68435
C          C       0.65022   0.32437   0.73491
H          H       0.62992   0.30063   0.79740
H          H       0.66306   0.35474   0.67344
C          C       0.99344   0.81170   0.73086
N          N       0.97329   0.80680   0.76566
H          H       0.01331   0.79418   0.69046
C          C       0.97503   0.77888   0.75950
C          C       0.00234   0.75133   0.75833
C          C       0.94787   0.77845   0.75997
C          C       0.00227   0.72442   0.75466
H          H       0.02384   0.75089   0.76246
C          C       0.94780   0.75155   0.75438
H          H       0.92657   0.79975   0.76282
C          C       0.97512   0.72405   0.75003
H          H       0.02356   0.70308   0.75331
H          H       0.92631   0.75191   0.75545
N          N       0.97673   0.69616   0.74742
C          C       0.95669   0.69194   0.70820
H          H       0.93716   0.71007   0.67002
C          C       0.80534   0.14419   0.71596
N          N       0.79982   0.16917   0.75407
H          H       0.78800   0.14165   0.67606
C          C       0.77130   0.19461   0.75366
C          C       0.74471   0.19311   0.75881
C          C       0.76927   0.22294   0.75486
C          C       0.71701   0.21925   0.76199
H          H       0.74574   0.17133   0.76266
C          C       0.74155   0.24907   0.75616
H          H       0.78990   0.22420   0.75269
C          C       0.71491   0.24759   0.75821
H          H       0.69642   0.21795   0.76572
H          H       0.74063   0.27083   0.75780
N          N       0.68633   0.27292   0.76255
C          C       0.68019   0.29807   0.72625
H          H       0.69703   0.30115   0.68545
C          C       0.04411   0.31902   0.69782
C          C       0.01803   0.34410   0.73343
C          C       0.06738   0.32336   0.66481
C          C       0.01537   0.37231   0.73557
H          H       0.99972   0.34121   0.76062
C          C       0.06468   0.35158   0.66698
H          H       0.08791   0.30426   0.63583
C          C       0.03858   0.37678   0.70220
H          H       0.99496   0.39110   0.76622
H          H       0.08307   0.35405   0.63820
C          C       0.03578   0.40679   0.70394
C          C       0.06096   0.41013   0.70725
C          C       0.00714   0.43301   0.70251
C          C       0.05822   0.43893   0.70807
H          H       0.08356   0.39043   0.71040
C          C       0.00331   0.46180   0.70645
H          H       0.98743   0.43025   0.69738
C          C       0.02921   0.46513   0.70808
C          C       0.08417   0.44182   0.70888
C          C       0.97352   0.48874   0.70838
C          C       0.02684   0.49398   0.70975
C          C       0.08193   0.46989   0.71213
H          H       0.10620   0.42128   0.70575
C          C       0.97111   0.51761   0.70835
C          C       0.94738   0.48705   0.71068
C          C       0.99704   0.52090   0.70813
C          C       0.05297   0.49569   0.71354
C          C       0.10889   0.47305   0.71344
C          C       0.94208   0.54381   0.70864
C          C       0.91841   0.51279   0.70874
H          H       0.94903   0.46503   0.71472
C          C       0.99322   0.54965   0.70616
H          H       0.05134   0.51772   0.71846
C          C       0.10804   0.49906   0.67984
C          C       0.13635   0.45012   0.74795
C          C       0.91613   0.54088   0.70755
C          C       0.93936   0.57263   0.70994
C          C       0.89173   0.50913   0.70731
C          C       0.96459   0.57591   0.70843
H          H       0.01300   0.55233   0.70211
C          C       0.13340   0.50202   0.68073
H          H       0.08744   0.51714   0.64959
C          C       0.16171   0.45303   0.74884
H          H       0.13790   0.42978   0.77706
H          H       0.89410   0.56138   0.70452
H          H       0.91676   0.59239   0.71332
C          C       0.89376   0.48259   0.67136
C          C       0.86365   0.53167   0.74163
C          C       0.96223   0.60573   0.70968
C          C       0.16074   0.47907   0.71535
H          H       0.13202   0.52244   0.65287
H          H       0.18275   0.43500   0.77700
C          C       0.86904   0.47858   0.67094
H          H       0.91484   0.46486   0.64060
C          C       0.83889   0.52770   0.74122
H          H       0.86117   0.55251   0.77168
C          C       0.93667   0.63132   0.67602
C          C       0.98576   0.60945   0.74446
C          C       0.84115   0.50096   0.70639
H          H       0.87133   0.45771   0.64173
H          H       0.81734   0.54541   0.76941
C          C       0.93495   0.65912   0.67606
H          H       0.91797   0.62955   0.64650
C          C       0.98410   0.63719   0.74447
H          H       0.00566   0.59040   0.77455
C          C       0.95865   0.66262   0.70982
H          H       0.91492   0.67856   0.64797
H          H       0.00270   0.63940   0.77263
C          C       0.81548   0.49616   0.70605
N          N       0.79089   0.51456   0.74848
H          H       0.81871   0.47578   0.66675
C          C       0.76583   0.51083   0.75122
C          C       0.73866   0.53584   0.78158
C          C       0.76615   0.48385   0.72901
C          C       0.71234   0.53464   0.78519
H          H       0.73844   0.55656   0.80174
C          C       0.73997   0.48243   0.73429
H          H       0.78703   0.46363   0.70772
C          C       0.71257   0.50798   0.75969
H          H       0.69157   0.55426   0.81041
H          H       0.74032   0.46155   0.71532
N          N       0.68676   0.50557   0.76413
C          C       0.66124   0.52669   0.73628
H          H       0.65861   0.54746   0.70288
C          C       0.34352   0.44521   0.74369
N          N       0.31851   0.46593   0.77817
H          H       0.34545   0.42542   0.70386
C          C       0.29218   0.46449   0.77230
C          C       0.26468   0.49166   0.76845
C          C       0.29188   0.43724   0.77546
C          C       0.23777   0.49170   0.76213
H          H       0.26470   0.51295   0.76805
C          C       0.26493   0.43732   0.77100
H          H       0.31284   0.41586   0.78356
C          C       0.23755   0.46438   0.76129
H          H       0.21667   0.51320   0.75952
H          H       0.26486   0.41606   0.77302
N          N       0.21146   0.46255   0.75683
C          C       0.18749   0.48208   0.71587
H          H       0.18592   0.50172   0.67788
