data_crystal

_cell_length_a    46.53350
_cell_length_b    46.53350
_cell_length_c    9.56600
_cell_angle_alpha 90.00000
_cell_angle_beta  90.00000
_cell_angle_gamma 120.00000

_space_group_name_Hall 'P 1'
_space_group_name_H-M_alt 'P 1'

loop_
_symmetry_equiv_pos_as_xyz
 'x,y,z'

loop_
_atom_site_label
_atom_site_type_symbol
_atom_site_fract_x
_atom_site_fract_y
_atom_site_fract_z
N          N       0.36637   0.67786   0.45137
N          N       0.32214   0.68851   0.45137
N          N       0.31149   0.63363   0.45137
C          C       0.34459   0.64469   0.45204
C          C       0.35531   0.69990   0.45204
C          C       0.30010   0.65541   0.45204
C          C       0.35684   0.62116   0.43413
C          C       0.37884   0.73568   0.43413
C          C       0.26432   0.64316   0.43413
C          C       0.38869   0.62936   0.48033
C          C       0.37064   0.75933   0.48033
C          C       0.24067   0.61131   0.48033
C          C       0.40176   0.60887   0.44805
C          C       0.39113   0.79289   0.44805
C          C       0.20711   0.59824   0.44805
C          C       0.38343   0.58015   0.36694
C          C       0.41985   0.80328   0.36694
C          C       0.19672   0.61657   0.36694
C          C       0.35118   0.57142   0.32482
C          C       0.42858   0.77976   0.32482
C          C       0.22024   0.64882   0.32482
C          C       0.33789   0.59158   0.35908
C          C       0.40842   0.74631   0.35908
C          C       0.25369   0.66211   0.35908
C          C       0.39875   0.55988   0.31803
C          C       0.44012   0.83887   0.31803
C          C       0.16113   0.60125   0.31803
N          N       0.43208   0.58163   0.26194
N          N       0.41837   0.85045   0.26194
N          N       0.14955   0.56792   0.26194
C          C       0.45636   0.57126   0.25620
C          C       0.42874   0.88510   0.25620
C          C       0.11490   0.54364   0.25620
C          C       0.48593   0.59024   0.18257
C          C       0.40976   0.89569   0.18257
C          C       0.10431   0.51407   0.18257
C          C       0.59492   0.49694   0.28712
C          C       0.50306   0.09798   0.28712
C          C       0.90202   0.40508   0.28712
H          H       0.49045   0.61263   0.12951
H          H       0.38737   0.87782   0.12951
H          H       0.12218   0.50955   0.12951
C          C       0.40030   0.53859   0.43693
C          C       0.46141   0.86171   0.43693
C          C       0.13829   0.59970   0.43693
H          H       0.40375   0.65198   0.03871
H          H       0.34802   0.75177   0.03871
H          H       0.24823   0.59625   0.03871
H          H       0.42675   0.61619   0.48088
H          H       0.38381   0.81056   0.48088
H          H       0.18944   0.57325   0.48088
H          H       0.33654   0.54939   0.26243
H          H       0.45061   0.78715   0.26243
H          H       0.21285   0.66346   0.26243
H          H       0.31338   0.58481   0.32109
H          H       0.41519   0.72857   0.32109
H          H       0.27143   0.68662   0.32109
C          C       0.62954   0.51515   0.34758
C          C       0.48485   0.11439   0.34758
C          C       0.88561   0.37046   0.34758
C          C       0.54269   0.49485   0.23105
C          C       0.50515   0.04784   0.23105
C          C       0.95216   0.45731   0.23105
C          C       0.57434   0.51102   0.29359
C          C       0.48898   0.06332   0.29359
C          C       0.93668   0.42566   0.29359
C          C       0.53182   0.46433   0.16451
C          C       0.53567   0.06749   0.16451
C          C       0.93251   0.46818   0.16451
H          H       0.50739   0.45139   0.11847
H          H       0.54861   0.05600   0.11847
H          H       0.94400   0.49261   0.11847
H          H       0.58283   0.53407   0.34971
H          H       0.46593   0.04876   0.34971
H          H       0.95124   0.41717   0.34971
H          H       0.42155   0.50785   0.48378
H          H       0.49215   0.91370   0.48378
H          H       0.08630   0.57845   0.48378
O          O       0.39706   0.49529   0.28678
O          O       0.50471   0.90177   0.28678
O          O       0.09823   0.60294   0.28678
C          C       0.37835   0.46307   0.34388
C          C       0.53693   0.91528   0.34388
C          C       0.08472   0.62165   0.34388
C          C       0.39714   0.44384   0.32933
C          C       0.55616   0.95330   0.32933
C          C       0.04670   0.60286   0.32933
H          H       0.35506   0.44991   0.28219
H          H       0.55009   0.90515   0.28219
H          H       0.09485   0.64494   0.28219
H          H       0.37018   0.46304   0.45359
H          H       0.53696   0.90714   0.45359
H          H       0.09286   0.62982   0.45359
H          H       0.41965   0.45803   0.26361
H          H       0.54197   0.96162   0.26361
H          H       0.03838   0.58035   0.26361
H          H       0.38064   0.41998   0.27506
H          H       0.58002   0.96066   0.27506
H          H       0.03934   0.61936   0.27506
N          N       0.40647   0.43747   0.46764
N          N       0.56253   0.96900   0.46764
N          N       0.03100   0.59353   0.46764
C          C       0.41650   0.41210   0.46285
C          C       0.58790   0.00440   0.46285
C          C       0.99560   0.58350   0.46285
H          H       0.42600   0.45957   0.00758
H          H       0.54043   0.96643   0.00758
H          H       0.03357   0.57400   0.00758
C          C       0.45089   0.42505   0.39535
C          C       0.57495   0.02584   0.39535
C          C       0.97416   0.54911   0.39535
H          H       0.39751   0.38984   0.40624
H          H       0.61016   0.00767   0.40624
H          H       0.99233   0.60249   0.40624
H          H       0.41710   0.40429   0.07198
H          H       0.59571   0.01281   0.07198
H          H       0.98719   0.58290   0.07198
H          H       0.44943   0.42792   0.28082
H          H       0.57208   0.02151   0.28082
H          H       0.97849   0.55057   0.28082
C          C       0.46583   0.40266   0.42372
C          C       0.59734   0.06317   0.42372
C          C       0.93683   0.53417   0.42372
H          H       0.46821   0.45000   0.43889
H          H       0.55000   0.01821   0.43889
H          H       0.98179   0.53179   0.43889
H          H       0.49286   0.41819   0.40163
H          H       0.58181   0.07467   0.40163
H          H       0.92533   0.50714   0.40163
N          N       0.45084   0.37286   0.33308
N          N       0.62714   0.07798   0.33308
N          N       0.92202   0.54916   0.33308
H          H       0.46354   0.39582   0.03606
H          H       0.60418   0.06772   0.03606
H          H       0.93228   0.53646   0.03606
C          C       0.47547   0.36447   0.27710
C          C       0.63553   0.11100   0.27710
C          C       0.88900   0.52453   0.27710
C          C       0.42135   0.34397   0.39465
C          C       0.65603   0.07738   0.39465
C          C       0.92262   0.57865   0.39465
H          H       0.42712   0.32520   0.43638
H          H       0.67480   0.10192   0.43638
H          H       0.89808   0.57288   0.43638
C          C       0.39418   0.32767   0.28332
C          C       0.67233   0.06651   0.28332
C          C       0.93349   0.60582   0.28332
H          H       0.41155   0.35149   0.48430
H          H       0.64851   0.06006   0.48430
H          H       0.93994   0.58845   0.48430
H          H       0.40295   0.31713   0.20052
H          H       0.68287   0.08582   0.20052
H          H       0.91418   0.59705   0.20052
H          H       0.38966   0.34667   0.23391
H          H       0.65333   0.04299   0.23391
H          H       0.95701   0.61034   0.23391
C          C       0.36156   0.29960   0.34276
C          C       0.70040   0.06196   0.34276
C          C       0.93804   0.63844   0.34276
H          H       0.36626   0.28307   0.41142
H          H       0.71693   0.08319   0.41142
H          H       0.91681   0.63374   0.41142
H          H       0.34593   0.28444   0.25382
H          H       0.71556   0.06149   0.25382
H          H       0.93851   0.65407   0.25382
N          N       0.34364   0.31294   0.41931
N          N       0.68706   0.03070   0.41931
N          N       0.96930   0.65636   0.41931
H          H       0.35469   0.32099   0.01731
H          H       0.67901   0.03370   0.01731
H          H       0.96630   0.64531   0.01731
H          H       0.31965   0.29333   0.43844
H          H       0.70667   0.02632   0.43844
H          H       0.97368   0.68035   0.43844
H          H       0.46292   0.34278   0.20578
H          H       0.65722   0.12014   0.20578
H          H       0.87986   0.53708   0.20578
C          C       0.49469   0.35718   0.39021
C          C       0.64282   0.13751   0.39021
C          C       0.86249   0.50531   0.39021
H          H       0.49349   0.38547   0.21186
H          H       0.61453   0.10802   0.21186
H          H       0.89198   0.50651   0.21186
C          C       0.52278   0.35354   0.32422
C          C       0.64646   0.16924   0.32422
C          C       0.83076   0.47722   0.32422
H          H       0.47782   0.33387   0.44634
H          H       0.66613   0.14395   0.44634
H          H       0.85605   0.52218   0.44634
H          H       0.50574   0.37757   0.46774
H          H       0.62243   0.12817   0.46774
H          H       0.87183   0.49426   0.46774
H          H       0.51254   0.33408   0.24185
H          H       0.66592   0.17846   0.24185
H          H       0.82154   0.48746   0.24185
N          N       0.53978   0.34450   0.42879
N          N       0.65550   0.19528   0.42879
N          N       0.80472   0.46022   0.42879
H          H       0.54109   0.37734   0.27444
H          H       0.62266   0.16375   0.27444
H          H       0.83625   0.45891   0.27444
H          H       0.52273   0.32162   0.47252
H          H       0.67838   0.20111   0.47252
H          H       0.79889   0.47727   0.47252
H          H       0.54830   0.36213   0.00904
H          H       0.63787   0.18617   0.00904
H          H       0.81383   0.45170   0.00904
H          H       0.66632   0.50366   0.43329
H          H       0.49634   0.16266   0.43329
H          H       0.83734   0.33368   0.43329
H          H       0.62402   0.47531   0.48008
H          H       0.52469   0.14871   0.48008
H          H       0.85129   0.37598   0.48008
H          H       0.51767   0.17252   0.19008
H          H       0.82748   0.34515   0.19008
H          H       0.65485   0.48233   0.19008
H          H       0.57149   0.16636   0.16192
H          H       0.83364   0.40513   0.16192
H          H       0.59487   0.42851   0.16192
C          C       0.52954   0.54075   0.23379
C          C       0.45925   0.98879   0.23379
C          C       0.01121   0.47046   0.23379
N          N       0.63578   0.32936   0.40390
N          N       0.67064   0.30642   0.40390
N          N       0.69358   0.36422   0.40390
C          C       0.66267   0.36039   0.40457
C          C       0.63961   0.30228   0.40457
C          C       0.69772   0.33733   0.40457
C          C       0.65820   0.38943   0.38768
C          C       0.61057   0.26877   0.38768
C          C       0.73123   0.34180   0.38768
C          C       0.62910   0.38831   0.43495
C          C       0.61169   0.24079   0.43495
C          C       0.75921   0.37090   0.43495
C          C       0.62303   0.41410   0.40341
C          C       0.58590   0.20893   0.40341
C          C       0.79107   0.37697   0.40341
C          C       0.64567   0.44121   0.32238
C          C       0.55879   0.20446   0.32238
C          C       0.79554   0.35433   0.32238
C          C       0.67530   0.44287   0.27933
C          C       0.55713   0.23243   0.27933
C          C       0.76757   0.32470   0.27933
C          C       0.68165   0.41733   0.31268
C          C       0.58267   0.26432   0.31268
C          C       0.73568   0.31835   0.31268
C          C       0.63726   0.46706   0.27382
C          C       0.53294   0.17020   0.27382
C          C       0.82980   0.36274   0.27382
N          N       0.60357   0.45083   0.21616
N          N       0.54917   0.15274   0.21616
N          N       0.84726   0.39643   0.21616
C          C       0.58347   0.46622   0.21950
C          C       0.53378   0.11725   0.21950
C          C       0.88275   0.41653   0.21950
C          C       0.55211   0.45030   0.15737
C          C       0.54970   0.10181   0.15737
C          C       0.89819   0.44789   0.15737
C          C       0.45038   0.54180   0.32277
C          C       0.45820   0.90858   0.32277
C          C       0.09142   0.54962   0.32277
H          H       0.54338   0.42691   0.10390
H          H       0.57309   0.11647   0.10390
H          H       0.88353   0.45662   0.10390
C          C       0.64039   0.49032   0.39385
C          C       0.50968   0.15007   0.39385
C          C       0.84993   0.35961   0.39385
H          H       0.61072   0.36713   0.49346
H          H       0.63287   0.24359   0.49346
H          H       0.75641   0.38928   0.49346
H          H       0.59994   0.41224   0.43641
H          H       0.58776   0.18770   0.43641
H          H       0.81230   0.40006   0.43641
H          H       0.69315   0.46350   0.21673
H          H       0.53650   0.22965   0.21673
H          H       0.77035   0.30685   0.21673
H          H       0.70417   0.41869   0.27398
H          H       0.58131   0.28548   0.27398
H          H       0.71452   0.29583   0.27398
C          C       0.41711   0.51902   0.38877
C          C       0.48098   0.89809   0.38877
C          C       0.10191   0.58289   0.38877
C          C       0.50427   0.55122   0.24311
C          C       0.44878   0.95305   0.24311
C          C       0.04695   0.49573   0.24311
C          C       0.47454   0.53221   0.31749
C          C       0.46779   0.94233   0.31749
C          C       0.05767   0.52546   0.31749
C          C       0.50963   0.58031   0.17565
C          C       0.41969   0.92932   0.17565
C          C       0.07068   0.49037   0.17565
H          H       0.53189   0.59510   0.11546
H          H       0.40490   0.93679   0.11546
H          H       0.06321   0.46811   0.11546
H          H       0.46997   0.50992   0.37180
H          H       0.49008   0.96005   0.37180
H          H       0.03995   0.53003   0.37180
H          H       0.62883   0.52875   0.44243
H          H       0.47125   0.10008   0.44243
H          H       0.89992   0.37117   0.44243
O          O       0.65133   0.53660   0.24302
O          O       0.46340   0.11473   0.24302
O          O       0.88527   0.34867   0.24302
C          C       0.67778   0.56578   0.30173
C          C       0.43422   0.11200   0.30173
C          C       0.88800   0.32222   0.30173
C          C       0.66820   0.59286   0.31695
C          C       0.40714   0.07534   0.31695
C          C       0.92466   0.33180   0.31695
H          H       0.69912   0.57489   0.22858
H          H       0.42511   0.12423   0.22858
H          H       0.87577   0.30088   0.22858
H          H       0.68690   0.56105   0.40209
H          H       0.43895   0.12585   0.40209
H          H       0.87415   0.31310   0.40209
H          H       0.64219   0.58318   0.28175
H          H       0.41682   0.05901   0.28175
H          H       0.94099   0.35781   0.28175
H          H       0.68477   0.61411   0.24898
H          H       0.38589   0.07066   0.24898
H          H       0.92934   0.31523   0.24898
N          N       0.67226   0.60451   0.46179
N          N       0.39549   0.06775   0.46179
N          N       0.93225   0.32774   0.46179
C          C       0.66188   0.62944   0.47985
C          C       0.37056   0.03244   0.47985
C          C       0.96756   0.33812   0.47985
H          H       0.65810   0.58421   0.02697
H          H       0.41579   0.07389   0.02697
H          H       0.92611   0.34190   0.02697
C          C       0.62405   0.61342   0.49850
C          C       0.38658   0.01063   0.49850
C          C       0.98937   0.37595   0.49850
H          H       0.67032   0.64712   0.39045
H          H       0.35288   0.02320   0.39045
H          H       0.97680   0.32968   0.39045
H          H       0.67452   0.64428   0.07430
H          H       0.35572   0.03024   0.07430
H          H       0.96976   0.32548   0.07430
H          H       0.61125   0.60313   0.39746
H          H       0.39687   0.00812   0.39746
H          H       0.99188   0.38875   0.39746
C          C       0.61450   0.63834   0.05385
C          C       0.36166   0.97616   0.05385
C          C       0.02384   0.38550   0.05385
H          H       0.61512   0.59267   0.07452
H          H       0.40733   0.02245   0.07452
H          H       0.97755   0.38488   0.07452
H          H       0.58784   0.62454   0.08211
H          H       0.37546   0.96330   0.08211
H          H       0.03670   0.41216   0.08211
N          N       0.62167   0.66413   0.44719
N          N       0.33587   0.95754   0.44719
N          N       0.04246   0.37833   0.44719
H          H       0.62798   0.64895   0.15366
H          H       0.35105   0.97903   0.15366
H          H       0.02097   0.37202   0.15366
C          C       0.59121   0.65968   0.37748
C          C       0.34032   0.93153   0.37748
C          C       0.06847   0.40879   0.37748
C          C       0.64460   0.69799   0.49955
C          C       0.30201   0.94661   0.49955
C          C       0.05339   0.35540   0.49955
H          H       0.63228   0.70578   0.07800
H          H       0.29422   0.92650   0.07800
H          H       0.07350   0.36772   0.07800
C          C       0.65913   0.72342   0.38021
C          C       0.27658   0.93571   0.38021
C          C       0.06429   0.34087   0.38021
H          H       0.66576   0.69784   0.05271
H          H       0.30216   0.96792   0.05271
H          H       0.03208   0.33424   0.05271
H          H       0.63896   0.72547   0.32781
H          H       0.27453   0.91349   0.32781
H          H       0.08651   0.36104   0.32781
H          H       0.67099   0.71501   0.30190
H          H       0.28499   0.95598   0.30190
H          H       0.04402   0.32901   0.30190
C          C       0.68457   0.75817   0.43243
C          C       0.24183   0.92640   0.43243
C          C       0.07360   0.31543   0.43243
H          H       0.67379   0.76603   0.01807
H          H       0.23397   0.90776   0.01807
H          H       0.09224   0.32621   0.01807
H          H       0.69066   0.77586   0.34412
H          H       0.22414   0.91480   0.34412
H          H       0.08520   0.30934   0.34412
N          N       0.71494   0.75922   0.47966
N          N       0.24078   0.95572   0.47966
N          N       0.04428   0.28506   0.47966
H          H       0.71140   0.75050   0.08253
H          H       0.24950   0.96090   0.08253
H          H       0.03910   0.28860   0.08253
H          H       0.73364   0.78412   0.48428
H          H       0.21588   0.94952   0.48428
H          H       0.05048   0.26636   0.48428
H          H       0.59809   0.67326   0.27692
H          H       0.32674   0.92483   0.27692
H          H       0.07517   0.40191   0.27692
C          C       0.57105   0.67133   0.46462
C          C       0.32867   0.89972   0.46462
C          C       0.10028   0.42895   0.46462
H          H       0.57509   0.63307   0.34918
H          H       0.36693   0.94202   0.34918
H          H       0.05798   0.42491   0.34918
C          C       0.53755   0.66091   0.39461
C          C       0.33909   0.87664   0.39461
C          C       0.12336   0.46245   0.39461
H          H       0.58514   0.69880   0.47374
H          H       0.30120   0.88634   0.47374
H          H       0.11366   0.41486   0.47374
H          H       0.56640   0.66039   0.07075
H          H       0.33961   0.90601   0.07075
H          H       0.09399   0.43360   0.07075
H          H       0.54145   0.66803   0.28263
H          H       0.33197   0.87342   0.28263
H          H       0.12658   0.45855   0.28263
N          N       0.52054   0.67655   0.46098
N          N       0.32345   0.84399   0.46098
N          N       0.15601   0.47946   0.46098
H          H       0.52154   0.63354   0.40113
H          H       0.36646   0.88800   0.40113
H          H       0.11200   0.47846   0.40113
H          H       0.53537   0.70231   0.45177
H          H       0.29769   0.83306   0.45177
H          H       0.16694   0.46463   0.45177
H          H       0.51765   0.67078   0.06742
H          H       0.32922   0.84687   0.06742
H          H       0.15313   0.48235   0.06742
H          H       0.37491   0.52118   0.47619
H          H       0.47882   0.85373   0.47619
H          H       0.14627   0.62509   0.47619
H          H       0.41503   0.55508   0.02346
H          H       0.44492   0.85995   0.02346
H          H       0.14005   0.58497   0.02346
H          H       0.45711   0.84029   0.23320
H          H       0.15971   0.61682   0.23320
H          H       0.38318   0.54289   0.23320
H          H       0.39660   0.83355   0.21021
H          H       0.16645   0.56305   0.21021
H          H       0.43695   0.60340   0.21021
N          N       0.52031   0.50772   0.23916
N          N       0.49228   0.01259   0.23916
N          N       0.98741   0.47969   0.23916
O          O       0.55852   0.56179   0.21585
O          O       0.43821   0.99673   0.21585
O          O       0.00327   0.44148   0.21585
H          H       0.49503   0.49023   0.23422
H          H       0.50977   0.00480   0.23422
H          H       0.99520   0.50497   0.23422
N          N       0.36637   0.67786   0.95137
N          N       0.32214   0.68851   0.95137
N          N       0.31149   0.63363   0.95137
C          C       0.34459   0.64469   0.95204
C          C       0.35531   0.69990   0.95204
C          C       0.30010   0.65541   0.95204
C          C       0.35684   0.62116   0.93414
C          C       0.37884   0.73568   0.93414
C          C       0.26432   0.64316   0.93414
C          C       0.38869   0.62936   0.98033
C          C       0.37064   0.75933   0.98033
C          C       0.24067   0.61131   0.98033
C          C       0.40176   0.60887   0.94804
C          C       0.39113   0.79289   0.94804
C          C       0.20711   0.59824   0.94804
C          C       0.38343   0.58015   0.86694
C          C       0.41985   0.80328   0.86694
C          C       0.19672   0.61657   0.86694
C          C       0.35118   0.57142   0.82482
C          C       0.42858   0.77976   0.82482
C          C       0.22024   0.64882   0.82482
C          C       0.33789   0.59158   0.85908
C          C       0.40842   0.74631   0.85908
C          C       0.25369   0.66211   0.85908
C          C       0.39875   0.55988   0.81803
C          C       0.44012   0.83887   0.81803
C          C       0.16113   0.60125   0.81803
N          N       0.43208   0.58163   0.76194
N          N       0.41837   0.85045   0.76194
N          N       0.14955   0.56792   0.76194
C          C       0.45636   0.57126   0.75620
C          C       0.42874   0.88510   0.75620
C          C       0.11490   0.54364   0.75620
C          C       0.48593   0.59024   0.68257
C          C       0.40976   0.89569   0.68257
C          C       0.10431   0.51407   0.68257
C          C       0.59492   0.49694   0.78712
C          C       0.50306   0.09798   0.78712
C          C       0.90202   0.40508   0.78712
H          H       0.49045   0.61263   0.62952
H          H       0.38737   0.87782   0.62952
H          H       0.12218   0.50955   0.62952
C          C       0.40030   0.53859   0.93693
C          C       0.46141   0.86171   0.93693
C          C       0.13829   0.59970   0.93693
H          H       0.40375   0.65198   0.53871
H          H       0.34802   0.75177   0.53871
H          H       0.24823   0.59625   0.53871
H          H       0.42675   0.61619   0.98088
H          H       0.38381   0.81056   0.98088
H          H       0.18944   0.57325   0.98088
H          H       0.33654   0.54939   0.76243
H          H       0.45061   0.78715   0.76243
H          H       0.21285   0.66346   0.76243
H          H       0.31338   0.58481   0.82109
H          H       0.41519   0.72857   0.82109
H          H       0.27143   0.68662   0.82109
C          C       0.62954   0.51515   0.84758
C          C       0.48485   0.11439   0.84758
C          C       0.88561   0.37046   0.84758
C          C       0.54269   0.49485   0.73105
C          C       0.50515   0.04784   0.73105
C          C       0.95216   0.45731   0.73105
C          C       0.57434   0.51102   0.79359
C          C       0.48898   0.06332   0.79359
C          C       0.93668   0.42566   0.79359
C          C       0.53182   0.46433   0.66451
C          C       0.53567   0.06749   0.66451
C          C       0.93251   0.46818   0.66451
H          H       0.50739   0.45139   0.61846
H          H       0.54861   0.05600   0.61846
H          H       0.94400   0.49261   0.61846
H          H       0.58283   0.53407   0.84971
H          H       0.46593   0.04876   0.84971
H          H       0.95124   0.41717   0.84971
H          H       0.42155   0.50785   0.98377
H          H       0.49215   0.91370   0.98377
H          H       0.08630   0.57845   0.98377
O          O       0.39706   0.49529   0.78678
O          O       0.50471   0.90177   0.78678
O          O       0.09823   0.60294   0.78678
C          C       0.37835   0.46307   0.84389
C          C       0.53693   0.91528   0.84389
C          C       0.08472   0.62165   0.84389
C          C       0.39714   0.44384   0.82933
C          C       0.55616   0.95330   0.82933
C          C       0.04670   0.60286   0.82933
H          H       0.35506   0.44991   0.78219
H          H       0.55009   0.90515   0.78219
H          H       0.09485   0.64494   0.78219
H          H       0.37018   0.46304   0.95359
H          H       0.53696   0.90714   0.95359
H          H       0.09286   0.62982   0.95359
H          H       0.41965   0.45803   0.76361
H          H       0.54197   0.96162   0.76361
H          H       0.03838   0.58035   0.76361
H          H       0.38064   0.41998   0.77506
H          H       0.58002   0.96066   0.77506
H          H       0.03934   0.61936   0.77506
N          N       0.40647   0.43747   0.96764
N          N       0.56253   0.96900   0.96764
N          N       0.03100   0.59353   0.96764
C          C       0.41650   0.41210   0.96284
C          C       0.58790   0.00440   0.96284
C          C       0.99560   0.58350   0.96284
H          H       0.42600   0.45957   0.50758
H          H       0.54043   0.96643   0.50758
H          H       0.03357   0.57400   0.50758
C          C       0.45089   0.42505   0.89535
C          C       0.57495   0.02584   0.89535
C          C       0.97416   0.54911   0.89535
H          H       0.39751   0.38984   0.90624
H          H       0.61016   0.00767   0.90624
H          H       0.99233   0.60249   0.90624
H          H       0.41710   0.40429   0.57198
H          H       0.59571   0.01281   0.57198
H          H       0.98719   0.58290   0.57198
H          H       0.44943   0.42792   0.78082
H          H       0.57208   0.02151   0.78082
H          H       0.97849   0.55057   0.78082
C          C       0.46583   0.40266   0.92372
C          C       0.59734   0.06317   0.92372
C          C       0.93683   0.53417   0.92372
H          H       0.46821   0.45000   0.93889
H          H       0.55000   0.01821   0.93889
H          H       0.98179   0.53179   0.93889
H          H       0.49286   0.41819   0.90163
H          H       0.58181   0.07467   0.90163
H          H       0.92533   0.50714   0.90163
N          N       0.45084   0.37286   0.83308
N          N       0.62714   0.07798   0.83308
N          N       0.92202   0.54916   0.83308
H          H       0.46354   0.39582   0.53607
H          H       0.60418   0.06772   0.53607
H          H       0.93228   0.53646   0.53607
C          C       0.47547   0.36447   0.77711
C          C       0.63553   0.11100   0.77711
C          C       0.88900   0.52453   0.77711
C          C       0.42135   0.34397   0.89466
C          C       0.65603   0.07738   0.89466
C          C       0.92262   0.57865   0.89466
H          H       0.42712   0.32520   0.93638
H          H       0.67480   0.10192   0.93638
H          H       0.89808   0.57288   0.93638
C          C       0.39418   0.32767   0.78332
C          C       0.67233   0.06651   0.78332
C          C       0.93349   0.60582   0.78332
H          H       0.41155   0.35149   0.98430
H          H       0.64851   0.06006   0.98430
H          H       0.93994   0.58845   0.98430
H          H       0.40295   0.31713   0.70052
H          H       0.68287   0.08582   0.70052
H          H       0.91418   0.59705   0.70052
H          H       0.38966   0.34667   0.73391
H          H       0.65333   0.04299   0.73391
H          H       0.95701   0.61034   0.73391
C          C       0.36156   0.29960   0.84276
C          C       0.70040   0.06196   0.84276
C          C       0.93804   0.63844   0.84276
H          H       0.36626   0.28307   0.91143
H          H       0.71693   0.08319   0.91143
H          H       0.91681   0.63374   0.91143
H          H       0.34593   0.28444   0.75382
H          H       0.71556   0.06149   0.75382
H          H       0.93851   0.65407   0.75382
N          N       0.34364   0.31294   0.91931
N          N       0.68706   0.03070   0.91931
N          N       0.96930   0.65636   0.91931
H          H       0.35469   0.32099   0.51730
H          H       0.67901   0.03370   0.51730
H          H       0.96630   0.64531   0.51730
H          H       0.31965   0.29333   0.93844
H          H       0.70667   0.02632   0.93844
H          H       0.97368   0.68035   0.93844
H          H       0.46292   0.34278   0.70578
H          H       0.65722   0.12014   0.70578
H          H       0.87986   0.53708   0.70578
C          C       0.49469   0.35718   0.89021
C          C       0.64282   0.13751   0.89021
C          C       0.86249   0.50531   0.89021
H          H       0.49349   0.38547   0.71186
H          H       0.61453   0.10802   0.71186
H          H       0.89198   0.50651   0.71186
C          C       0.52278   0.35354   0.82422
C          C       0.64646   0.16924   0.82422
C          C       0.83076   0.47722   0.82422
H          H       0.47782   0.33387   0.94634
H          H       0.66613   0.14395   0.94634
H          H       0.85605   0.52218   0.94634
H          H       0.50574   0.37757   0.96774
H          H       0.62243   0.12817   0.96774
H          H       0.87183   0.49426   0.96774
H          H       0.51254   0.33408   0.74185
H          H       0.66592   0.17846   0.74185
H          H       0.82154   0.48746   0.74185
N          N       0.53978   0.34450   0.92880
N          N       0.65550   0.19528   0.92880
N          N       0.80472   0.46022   0.92880
H          H       0.54109   0.37734   0.77444
H          H       0.62266   0.16375   0.77444
H          H       0.83625   0.45891   0.77444
H          H       0.52273   0.32162   0.97252
H          H       0.67838   0.20111   0.97252
H          H       0.79889   0.47727   0.97252
H          H       0.54830   0.36213   0.50904
H          H       0.63787   0.18617   0.50904
H          H       0.81383   0.45170   0.50904
H          H       0.66632   0.50366   0.93329
H          H       0.49634   0.16266   0.93329
H          H       0.83734   0.33368   0.93329
H          H       0.62402   0.47531   0.98008
H          H       0.52469   0.14871   0.98008
H          H       0.85129   0.37598   0.98008
H          H       0.51767   0.17252   0.69008
H          H       0.82748   0.34515   0.69008
H          H       0.65485   0.48233   0.69008
H          H       0.57149   0.16636   0.66192
H          H       0.83364   0.40513   0.66192
H          H       0.59487   0.42851   0.66192
C          C       0.52954   0.54075   0.73379
C          C       0.45925   0.98879   0.73379
C          C       0.01121   0.47046   0.73379
N          N       0.63578   0.32936   0.90390
N          N       0.67064   0.30642   0.90390
N          N       0.69358   0.36422   0.90390
C          C       0.66267   0.36039   0.90457
C          C       0.63961   0.30228   0.90457
C          C       0.69772   0.33733   0.90457
C          C       0.65820   0.38943   0.88768
C          C       0.61057   0.26877   0.88768
C          C       0.73123   0.34180   0.88768
C          C       0.62910   0.38831   0.93495
C          C       0.61169   0.24079   0.93495
C          C       0.75921   0.37090   0.93495
C          C       0.62303   0.41410   0.90341
C          C       0.58590   0.20893   0.90341
C          C       0.79107   0.37697   0.90341
C          C       0.64567   0.44121   0.82238
C          C       0.55879   0.20446   0.82238
C          C       0.79554   0.35433   0.82238
C          C       0.67530   0.44287   0.77933
C          C       0.55713   0.23243   0.77933
C          C       0.76757   0.32470   0.77933
C          C       0.68165   0.41733   0.81268
C          C       0.58267   0.26432   0.81268
C          C       0.73568   0.31835   0.81268
C          C       0.63726   0.46706   0.77382
C          C       0.53294   0.17020   0.77382
C          C       0.82980   0.36274   0.77382
N          N       0.60357   0.45083   0.71615
N          N       0.54917   0.15274   0.71615
N          N       0.84726   0.39643   0.71615
C          C       0.58347   0.46622   0.71950
C          C       0.53378   0.11725   0.71950
C          C       0.88275   0.41653   0.71950
C          C       0.55211   0.45030   0.65736
C          C       0.54970   0.10181   0.65736
C          C       0.89819   0.44789   0.65736
C          C       0.45038   0.54180   0.82277
C          C       0.45820   0.90858   0.82277
C          C       0.09142   0.54962   0.82277
H          H       0.54338   0.42691   0.60390
H          H       0.57309   0.11647   0.60390
H          H       0.88353   0.45662   0.60390
C          C       0.64039   0.49032   0.89385
C          C       0.50968   0.15007   0.89385
C          C       0.84993   0.35961   0.89385
H          H       0.61072   0.36713   0.99346
H          H       0.63287   0.24359   0.99346
H          H       0.75641   0.38928   0.99346
H          H       0.59994   0.41224   0.93641
H          H       0.58776   0.18770   0.93641
H          H       0.81230   0.40006   0.93641
H          H       0.69315   0.46350   0.71674
H          H       0.53650   0.22965   0.71674
H          H       0.77035   0.30685   0.71674
H          H       0.70417   0.41869   0.77398
H          H       0.58131   0.28548   0.77398
H          H       0.71452   0.29583   0.77398
C          C       0.41711   0.51902   0.88876
C          C       0.48098   0.89809   0.88876
C          C       0.10191   0.58289   0.88876
C          C       0.50427   0.55122   0.74311
C          C       0.44878   0.95305   0.74311
C          C       0.04695   0.49573   0.74311
C          C       0.47454   0.53221   0.81749
C          C       0.46779   0.94233   0.81749
C          C       0.05767   0.52546   0.81749
C          C       0.50963   0.58031   0.67565
C          C       0.41969   0.92932   0.67565
C          C       0.07068   0.49037   0.67565
H          H       0.53189   0.59510   0.61547
H          H       0.40490   0.93679   0.61547
H          H       0.06321   0.46811   0.61547
H          H       0.46997   0.50992   0.87181
H          H       0.49008   0.96005   0.87181
H          H       0.03995   0.53003   0.87181
H          H       0.62883   0.52875   0.94244
H          H       0.47125   0.10008   0.94244
H          H       0.89992   0.37117   0.94244
O          O       0.65133   0.53660   0.74302
O          O       0.46340   0.11473   0.74302
O          O       0.88527   0.34867   0.74302
C          C       0.67778   0.56578   0.80173
C          C       0.43422   0.11200   0.80173
C          C       0.88800   0.32222   0.80173
C          C       0.66820   0.59286   0.81695
C          C       0.40714   0.07534   0.81695
C          C       0.92466   0.33180   0.81695
H          H       0.69912   0.57489   0.72858
H          H       0.42511   0.12423   0.72858
H          H       0.87577   0.30088   0.72858
H          H       0.68690   0.56105   0.90209
H          H       0.43895   0.12585   0.90209
H          H       0.87415   0.31310   0.90209
H          H       0.64219   0.58318   0.78175
H          H       0.41682   0.05901   0.78175
H          H       0.94099   0.35781   0.78175
H          H       0.68477   0.61411   0.74898
H          H       0.38589   0.07066   0.74898
H          H       0.92934   0.31523   0.74898
N          N       0.67226   0.60451   0.96178
N          N       0.39549   0.06775   0.96178
N          N       0.93225   0.32774   0.96178
C          C       0.66188   0.62944   0.97986
C          C       0.37056   0.03244   0.97986
C          C       0.96756   0.33812   0.97986
H          H       0.65810   0.58421   0.52697
H          H       0.41579   0.07389   0.52697
H          H       0.92611   0.34190   0.52697
C          C       0.62405   0.61342   0.99850
C          C       0.38658   0.01063   0.99850
C          C       0.98937   0.37595   0.99850
H          H       0.67032   0.64712   0.89045
H          H       0.35288   0.02320   0.89045
H          H       0.97680   0.32968   0.89045
H          H       0.67452   0.64428   0.57430
H          H       0.35572   0.03024   0.57430
H          H       0.96976   0.32548   0.57430
H          H       0.61125   0.60313   0.89746
H          H       0.39687   0.00812   0.89746
H          H       0.99188   0.38875   0.89746
C          C       0.61450   0.63834   0.55385
C          C       0.36166   0.97616   0.55385
C          C       0.02384   0.38550   0.55385
H          H       0.61512   0.59267   0.57452
H          H       0.40733   0.02245   0.57452
H          H       0.97755   0.38488   0.57452
H          H       0.58784   0.62454   0.58211
H          H       0.37546   0.96330   0.58211
H          H       0.03670   0.41216   0.58211
N          N       0.62167   0.66413   0.94720
N          N       0.33587   0.95754   0.94720
N          N       0.04246   0.37833   0.94720
H          H       0.62798   0.64895   0.65366
H          H       0.35105   0.97903   0.65366
H          H       0.02097   0.37202   0.65366
C          C       0.59121   0.65968   0.87748
C          C       0.34032   0.93153   0.87748
C          C       0.06847   0.40879   0.87748
C          C       0.64460   0.69799   0.99955
C          C       0.30201   0.94661   0.99955
C          C       0.05339   0.35540   0.99955
H          H       0.63228   0.70578   0.57800
H          H       0.29422   0.92650   0.57800
H          H       0.07350   0.36772   0.57800
C          C       0.65913   0.72342   0.88020
C          C       0.27658   0.93571   0.88020
C          C       0.06429   0.34087   0.88020
H          H       0.66576   0.69784   0.55271
H          H       0.30216   0.96792   0.55271
H          H       0.03208   0.33424   0.55271
H          H       0.63896   0.72547   0.82781
H          H       0.27453   0.91349   0.82781
H          H       0.08651   0.36104   0.82781
H          H       0.67099   0.71501   0.80190
H          H       0.28499   0.95598   0.80190
H          H       0.04402   0.32901   0.80190
C          C       0.68457   0.75817   0.93243
C          C       0.24183   0.92640   0.93243
C          C       0.07360   0.31543   0.93243
H          H       0.67379   0.76603   0.51806
H          H       0.23397   0.90776   0.51806
H          H       0.09224   0.32621   0.51806
H          H       0.69066   0.77586   0.84412
H          H       0.22414   0.91480   0.84412
H          H       0.08520   0.30934   0.84412
N          N       0.71494   0.75922   0.97966
N          N       0.24078   0.95572   0.97966
N          N       0.04428   0.28506   0.97966
H          H       0.71140   0.75050   0.58254
H          H       0.24950   0.96090   0.58254
H          H       0.03910   0.28860   0.58254
H          H       0.73364   0.78412   0.98427
H          H       0.21588   0.94952   0.98427
H          H       0.05048   0.26636   0.98427
H          H       0.59809   0.67326   0.77692
H          H       0.32674   0.92483   0.77692
H          H       0.07517   0.40191   0.77692
C          C       0.57105   0.67133   0.96461
C          C       0.32867   0.89972   0.96461
C          C       0.10028   0.42895   0.96461
H          H       0.57509   0.63307   0.84918
H          H       0.36693   0.94202   0.84918
H          H       0.05798   0.42491   0.84918
C          C       0.53755   0.66091   0.89462
C          C       0.33909   0.87664   0.89462
C          C       0.12336   0.46245   0.89462
H          H       0.58514   0.69880   0.97373
H          H       0.30120   0.88634   0.97373
H          H       0.11366   0.41486   0.97373
H          H       0.56640   0.66039   0.57076
H          H       0.33961   0.90601   0.57076
H          H       0.09399   0.43360   0.57076
H          H       0.54145   0.66803   0.78263
H          H       0.33197   0.87342   0.78263
H          H       0.12658   0.45855   0.78263
N          N       0.52054   0.67655   0.96098
N          N       0.32345   0.84399   0.96098
N          N       0.15601   0.47946   0.96098
H          H       0.52154   0.63354   0.90113
H          H       0.36646   0.88800   0.90113
H          H       0.11200   0.47846   0.90113
H          H       0.53537   0.70231   0.95177
H          H       0.29769   0.83306   0.95177
H          H       0.16694   0.46463   0.95177
H          H       0.51765   0.67078   0.56742
H          H       0.32922   0.84687   0.56742
H          H       0.15313   0.48235   0.56742
H          H       0.37491   0.52118   0.97619
H          H       0.47882   0.85373   0.97619
H          H       0.14627   0.62509   0.97619
H          H       0.41503   0.55508   0.52346
H          H       0.44492   0.85995   0.52346
H          H       0.14005   0.58497   0.52346
H          H       0.45711   0.84029   0.73320
H          H       0.15971   0.61682   0.73320
H          H       0.38318   0.54289   0.73320
H          H       0.39660   0.83355   0.71021
H          H       0.16645   0.56305   0.71021
H          H       0.43695   0.60340   0.71021
N          N       0.52031   0.50772   0.73916
N          N       0.49228   0.01259   0.73916
N          N       0.98741   0.47969   0.73916
O          O       0.55852   0.56179   0.71585
O          O       0.43821   0.99673   0.71585
O          O       0.00327   0.44148   0.71585
H          H       0.49503   0.49023   0.73422
H          H       0.50977   0.00480   0.73422
H          H       0.99520   0.50497   0.73422
