data_TFB-COF
_audit_creation_date              0000-00-00
_audit_creation_method            'LanYouShi'
_symmetry_space_group_name_H-M    'P1'
_cell_length_a                    30.5802002
_cell_length_b                    30.5802002
_cell_length_c                    4.0977001
_cell_angle_alpha                 90.0000000
_cell_angle_beta                  90.0000000
_cell_angle_gamma                 120.0000000
loop_
_atom_site_label
_atom_site_type_symbol
_atom_site_fract_x
_atom_site_fract_y
_atom_site_fract_z
_atom_site_U_iso_or_equiv
_atom_site_adp_type
_atom_site_occupancy
        C1          C  0.8956381  0.4220889  0.5000017    0.00000       Uiso       1.00
        C2          C  0.5779123  0.4735492  0.5000017    0.00000       Uiso       1.00
        C3          C  0.5264520  0.1043631  0.5000017    0.00000       Uiso       1.00
        C4          C  0.1043631  0.5779123  0.5000017    0.00000       Uiso       1.00
        C5          C  0.4220889  0.5264520  0.5000017    0.00000       Uiso       1.00
        C6          C  0.4735492  0.8956380  0.5000017    0.00000       Uiso       1.00
        C7          C  0.9469180  0.4618946  0.5000017    0.00000       Uiso       1.00
        C8          C  0.4481218  0.9623886  0.5000017    0.00000       Uiso       1.00
        C9          C  0.5381066  0.4850234  0.5000017    0.00000       Uiso       1.00
       C10          C  0.0376126  0.4857343  0.5000017    0.00000       Uiso       1.00
       C11          C  0.5149778  0.0530832  0.5000017    0.00000       Uiso       1.00
       C12          C  0.5142668  0.5518794  0.5000017    0.00000       Uiso       1.00
       C13          C  0.0530832  0.5381066  0.5000017    0.00000       Uiso       1.00
       C14          C  0.5518794  0.0376125  0.5000017    0.00000       Uiso       1.00
       C15          C  0.4618945  0.5149778  0.5000017    0.00000       Uiso       1.00
       C16          C  0.9623886  0.5142668  0.5000017    0.00000       Uiso       1.00
       C17          C  0.4850234  0.9469180  0.5000017    0.00000       Uiso       1.00
       C18          C  0.4857343  0.4481218  0.5000017    0.00000       Uiso       1.00
        O1          O  0.8850530  0.3767579  0.5000017    0.00000       Uiso       1.00
        O2          O  0.6232433  0.5082951  0.5000017    0.00000       Uiso       1.00
        O3          O  0.4917060  0.1149481  0.5000017    0.00000       Uiso       1.00
        O4          O  0.1149481  0.6232433  0.5000017    0.00000       Uiso       1.00
        O5          O  0.3767579  0.4917060  0.5000017    0.00000       Uiso       1.00
        O6          O  0.5082951  0.8850530  0.5000017    0.00000       Uiso       1.00
        N1          N  0.5853503  0.1909859  0.5000017    0.00000       Uiso       1.00
        N2          N  0.8090153  0.3943644  0.5000017    0.00000       Uiso       1.00
        N3          N  0.6056368  0.4146509  0.5000017    0.00000       Uiso       1.00
        N4          N  0.4146509  0.8090153  0.5000017    0.00000       Uiso       1.00
        N5          N  0.1909859  0.6056367  0.5000017    0.00000       Uiso       1.00
        N6          N  0.3943644  0.5853503  0.5000017    0.00000       Uiso       1.00
        N7          N  0.8559040  0.4299245  0.5000017    0.00000       Uiso       1.00
        N8          N  0.5700766  0.4259795  0.5000017    0.00000       Uiso       1.00
        N9          N  0.5740216  0.1440971  0.5000017    0.00000       Uiso       1.00
       N10          N  0.1440971  0.5700766  0.5000017    0.00000       Uiso       1.00
       N11          N  0.4299245  0.5740216  0.5000017    0.00000       Uiso       1.00
       N12          N  0.4259796  0.8559041  0.5000017    0.00000       Uiso       1.00
       C19          C  0.9856440  0.4492348  0.5000017    0.00000       Uiso       1.00
       C20          C  0.5507663  0.5364091  0.5000017    0.00000       Uiso       1.00
       C21          C  0.4635920  0.0143572  0.5000017    0.00000       Uiso       1.00
       C22          C  0.0143572  0.5507663  0.5000017    0.00000       Uiso       1.00
       C23          C  0.4492348  0.4635920  0.5000017    0.00000       Uiso       1.00
       C24          C  0.5364091  0.9856440  0.5000017    0.00000       Uiso       1.00
        H1          H  0.9759842  0.4121194  0.5000017    0.00000       Uiso       1.00
        H2          H  0.5878817  0.5638648  0.5000017    0.00000       Uiso       1.00
        H3          H  0.4361364  0.0240169  0.5000017    0.00000       Uiso       1.00
        H4          H  0.0240169  0.5878817  0.5000017    0.00000       Uiso       1.00
        H5          H  0.4121194  0.4361364  0.5000017    0.00000       Uiso       1.00
        H6          H  0.5638648  0.9759843  0.5000017    0.00000       Uiso       1.00
       C25          C  0.7714120  0.4054772  0.5000017    0.00000       Uiso       1.00
       C26          C  0.5945239  0.3659347  0.5000017    0.00000       Uiso       1.00
       C27          C  0.6340665  0.2285892  0.5000017    0.00000       Uiso       1.00
       C28          C  0.2285892  0.5945239  0.5000017    0.00000       Uiso       1.00
       C29          C  0.4054773  0.6340665  0.5000017    0.00000       Uiso       1.00
       C30          C  0.3659347  0.7714119  0.5000017    0.00000       Uiso       1.00
       C31          C  0.2804883  0.6309147  0.5000017    0.00000       Uiso       1.00
       C32          C  0.3690865  0.6495748  0.5000017    0.00000       Uiso       1.00
       C33          C  0.3504263  0.7195129  0.5000017    0.00000       Uiso       1.00
       C34          C  0.7195129  0.3690865  0.5000017    0.00000       Uiso       1.00
       C35          C  0.6309146  0.3504263  0.5000017    0.00000       Uiso       1.00
       C36          C  0.6495748  0.2804883  0.5000017    0.00000       Uiso       1.00
       C37          C  0.3166016  0.6148363  0.5000017    0.00000       Uiso       1.00
       C38          C  0.3851649  0.7017665  0.5000017    0.00000       Uiso       1.00
       C39          C  0.2982347  0.6833996  0.5000017    0.00000       Uiso       1.00
       C40          C  0.6833996  0.3851649  0.5000017    0.00000       Uiso       1.00
       C41          C  0.6148363  0.2982347  0.5000017    0.00000       Uiso       1.00
       C42          C  0.7017665  0.3166016  0.5000017    0.00000       Uiso       1.00
        H7          H  0.2724728  0.6954792  0.5000017    0.00000       Uiso       1.00
        H8          H  0.3045220  0.5769947  0.5000017    0.00000       Uiso       1.00
        H9          H  0.4230064  0.7275284  0.5000017    0.00000       Uiso       1.00
       H10          H  0.7275284  0.3045220  0.5000017    0.00000       Uiso       1.00
       H11          H  0.6954792  0.4230064  0.5000017    0.00000       Uiso       1.00
       H12          H  0.5769948  0.2724728  0.5000017    0.00000       Uiso       1.00
       H13          H  0.4001684  0.3535259  0.7159432    0.00000       Uiso       1.00
       H14          H  0.6464753  0.0466426  0.7159432    0.00000       Uiso       1.00
       H15          H  0.9533585  0.5998327  0.7159432    0.00000       Uiso       1.00
       H16          H  0.5998327  0.6464753  0.7159432    0.00000       Uiso       1.00
       H17          H  0.3535259  0.9533586  0.7159432    0.00000       Uiso       1.00
       H18          H  0.0466426  0.4001684  0.7159432    0.00000       Uiso       1.00
       H19          H  0.5998327  0.6464753  0.2840601    0.00000       Uiso       1.00
       H20          H  0.3535259  0.9533586  0.2840601    0.00000       Uiso       1.00
       H21          H  0.0466426  0.4001684  0.2840601    0.00000       Uiso       1.00
       H22          H  0.4001684  0.3535259  0.2840601    0.00000       Uiso       1.00
       H23          H  0.6464753  0.0466426  0.2840601    0.00000       Uiso       1.00
       H24          H  0.9533585  0.5998327  0.2840601    0.00000       Uiso       1.00
       H25          H  0.5584755  0.1990631  0.5000017    0.00000       Uiso       1.00
       H26          H  0.7815267  0.4429312  0.5000017    0.00000       Uiso       1.00
       H27          H  0.8628036  0.4642330  0.5000017    0.00000       Uiso       1.00
        O7          O  0.4704675  0.3977768  0.5000017    0.00000       Uiso       1.00
       C43          C  0.4210807  0.3540085  0.5000017    0.00000       Uiso       1.00
       H28          H  0.4247743  0.3203582  0.5000017    0.00000       Uiso       1.00
       H29          H  0.8009380  0.3594123  0.5000017    0.00000       Uiso       1.00
       H30          H  0.5570700  0.3385955  0.5000017    0.00000       Uiso       1.00
       H31          H  0.5357682  0.3985706  0.5000017    0.00000       Uiso       1.00
        O8          O  0.6022243  0.0726907  0.5000017    0.00000       Uiso       1.00
       C44          C  0.6459927  0.0670723  0.5000017    0.00000       Uiso       1.00
       H32          H  0.6796429  0.1044161  0.5000017    0.00000       Uiso       1.00
       H33          H  0.6405888  0.4415257  0.5000017    0.00000       Uiso       1.00
       H34          H  0.6614057  0.2184745  0.5000017    0.00000       Uiso       1.00
       H35          H  0.6014306  0.1371976  0.5000017    0.00000       Uiso       1.00
        O9          O  0.9273105  0.5295337  0.5000017    0.00000       Uiso       1.00
       C45          C  0.9329289  0.5789204  0.5000017    0.00000       Uiso       1.00
       H36          H  0.8955851  0.5752268  0.5000017    0.00000       Uiso       1.00
       H37          H  0.4415257  0.8009380  0.5000017    0.00000       Uiso       1.00
       H38          H  0.2184745  0.5570700  0.5000017    0.00000       Uiso       1.00
       H39          H  0.1371976  0.5357682  0.5000017    0.00000       Uiso       1.00
       O10          O  0.5295337  0.6022243  0.5000017    0.00000       Uiso       1.00
       C46          C  0.5789204  0.6459927  0.5000017    0.00000       Uiso       1.00
       H40          H  0.5752268  0.6796429  0.5000017    0.00000       Uiso       1.00
       H41          H  0.1990631  0.6405888  0.5000017    0.00000       Uiso       1.00
       H42          H  0.4429312  0.6614057  0.5000017    0.00000       Uiso       1.00
       H43          H  0.4642330  0.6014305  0.5000017    0.00000       Uiso       1.00
       O11          O  0.3977768  0.9273105  0.5000017    0.00000       Uiso       1.00
       C47          C  0.3540085  0.9329289  0.5000017    0.00000       Uiso       1.00
       H44          H  0.3203582  0.8955851  0.5000017    0.00000       Uiso       1.00
       H45          H  0.3594123  0.5584755  0.5000017    0.00000       Uiso       1.00
       H46          H  0.3385955  0.7815267  0.5000017    0.00000       Uiso       1.00
       H47          H  0.3985706  0.8628035  0.5000017    0.00000       Uiso       1.00
       O12          O  0.0726907  0.4704675  0.5000017    0.00000       Uiso       1.00
       C48          C  0.0670722  0.4210807  0.5000017    0.00000       Uiso       1.00
       H48          H  0.1044161  0.4247743  0.5000017    0.00000       Uiso       1.00
