data_TfpBDH
_audit_creation_date              0000-00-00
_audit_creation_method            'LanYouShi'
_symmetry_space_group_name_H-M    'P1'
_cell_length_a                    43.8237991
_cell_length_b                    43.8237991
_cell_length_c                    3.5941000
_cell_angle_alpha                 90.0000000
_cell_angle_beta                  90.0000000
_cell_angle_gamma                 120.0000000
loop_
_atom_site_label
_atom_site_type_symbol
_atom_site_fract_x
_atom_site_fract_y
_atom_site_fract_z
_atom_site_U_iso_or_equiv
_atom_site_adp_type
_atom_site_occupancy
        C1          C  0.8546926  0.4554230  0.4999938    0.00000       Uiso       1.00
        C1          C  0.5445777  0.3992696  0.4999938    0.00000       Uiso       1.00
        C1          C  0.6007311  0.1453081  0.4999938    0.00000       Uiso       1.00
        C1          C  0.1453081  0.5445777  0.4999938    0.00000       Uiso       1.00
        C1          C  0.4554230  0.6007311  0.4999938    0.00000       Uiso       1.00
        C1          C  0.3992696  0.8546926  0.4999938    0.00000       Uiso       1.00
        N1          N  0.8785577  0.4444870  0.4999938    0.00000       Uiso       1.00
        N1          N  0.5555136  0.4340707  0.4999938    0.00000       Uiso       1.00
        N1          N  0.5659299  0.1214429  0.4999938    0.00000       Uiso       1.00
        N1          N  0.1214429  0.5555136  0.4999938    0.00000       Uiso       1.00
        N1          N  0.4444870  0.5659299  0.4999938    0.00000       Uiso       1.00
        N1          N  0.4340707  0.8785577  0.4999938    0.00000       Uiso       1.00
        N1          N  0.9129085  0.4619217  0.4999938    0.00000       Uiso       1.00
        N2          N  0.5380790  0.4509868  0.4999938    0.00000       Uiso       1.00
        N3          N  0.5490139  0.0870921  0.4999938    0.00000       Uiso       1.00
        N4          N  0.0870921  0.5380790  0.4999938    0.00000       Uiso       1.00
        N5          N  0.4619217  0.5490139  0.4999938    0.00000       Uiso       1.00
        N6          N  0.4509868  0.9129086  0.4999938    0.00000       Uiso       1.00
        C1          C  0.0027556  0.5341443  0.4999938    0.00000       Uiso       1.00
        C2          C  0.4658563  0.4686119  0.4999938    0.00000       Uiso       1.00
        C3          C  0.5313887  0.9972450  0.4999938    0.00000       Uiso       1.00
        C4          C  0.9972451  0.4658563  0.4999938    0.00000       Uiso       1.00
        C5          C  0.5341443  0.5313888  0.4999938    0.00000       Uiso       1.00
        C6          C  0.4686119  0.0027556  0.4999938    0.00000       Uiso       1.00
        C7          C  0.9698153  0.5028048  0.4999938    0.00000       Uiso       1.00
        C8          C  0.4971958  0.4670104  0.4999938    0.00000       Uiso       1.00
        C9          C  0.5329903  0.0301854  0.4999938    0.00000       Uiso       1.00
       C10          C  0.0301854  0.4971958  0.4999938    0.00000       Uiso       1.00
       C11          C  0.5028048  0.5329903  0.4999938    0.00000       Uiso       1.00
       C12          C  0.4670104  0.9698152  0.4999938    0.00000       Uiso       1.00
       C13          C  0.9671752  0.4697031  0.4999938    0.00000       Uiso       1.00
       C14          C  0.5302975  0.4974720  0.4999938    0.00000       Uiso       1.00
       C15          C  0.5025286  0.0328255  0.4999938    0.00000       Uiso       1.00
       C16          C  0.0328255  0.5302976  0.4999938    0.00000       Uiso       1.00
       C17          C  0.4697031  0.5025286  0.4999938    0.00000       Uiso       1.00
       C18          C  0.4974720  0.9671751  0.4999938    0.00000       Uiso       1.00
       C19          C  0.9356607  0.4971938  0.4999938    0.00000       Uiso       1.00
       C20          C  0.5028068  0.4384668  0.4999938    0.00000       Uiso       1.00
       C21          C  0.5615339  0.0643400  0.4999938    0.00000       Uiso       1.00
       C22          C  0.0643400  0.5028068  0.4999938    0.00000       Uiso       1.00
       C23          C  0.4971938  0.5615339  0.4999938    0.00000       Uiso       1.00
       C24          C  0.4384668  0.9356606  0.4999938    0.00000       Uiso       1.00
       C25          C  0.9314796  0.4448803  0.4999938    0.00000       Uiso       1.00
       C26          C  0.5551204  0.4865993  0.4999938    0.00000       Uiso       1.00
       C27          C  0.5134013  0.0685211  0.4999938    0.00000       Uiso       1.00
       C28          C  0.0685211  0.5551204  0.4999938    0.00000       Uiso       1.00
       C29          C  0.4448803  0.5134013  0.4999938    0.00000       Uiso       1.00
       C30          C  0.4865993  0.9314796  0.4999938    0.00000       Uiso       1.00
        H1          H  0.1367710  0.5182145  0.4999938    0.00000       Uiso       1.00
        H2          H  0.4817861  0.6185572  0.4999938    0.00000       Uiso       1.00
        H3          H  0.3814435  0.8632296  0.4999938    0.00000       Uiso       1.00
        H4          H  0.8632296  0.4817861  0.4999938    0.00000       Uiso       1.00
        H5          H  0.5182145  0.3814435  0.4999938    0.00000       Uiso       1.00
        H6          H  0.6185572  0.1367710  0.4999938    0.00000       Uiso       1.00
        O1          O  0.0716471  0.4786063  0.4999938    0.00000       Uiso       1.00
        O2          O  0.5213943  0.5930414  0.4999938    0.00000       Uiso       1.00
        O3          O  0.4069592  0.9283535  0.4999938    0.00000       Uiso       1.00
        O4          O  0.9283536  0.5213943  0.4999938    0.00000       Uiso       1.00
        O5          O  0.4786063  0.4069592  0.4999938    0.00000       Uiso       1.00
        O6          O  0.5930414  0.0716471  0.4999938    0.00000       Uiso       1.00
        O7          O  0.0809853  0.5878292  0.4999938    0.00000       Uiso       1.00
        O8          O  0.4121714  0.4931568  0.4999938    0.00000       Uiso       1.00
        O9          O  0.5068439  0.9190153  0.4999938    0.00000       Uiso       1.00
       O10          O  0.9190153  0.4121714  0.4999938    0.00000       Uiso       1.00
       O11          O  0.5878292  0.5068439  0.4999938    0.00000       Uiso       1.00
       O12          O  0.4931567  0.0809853  0.4999938    0.00000       Uiso       1.00
        O1          H  0.9952642  0.4416125  0.4999938    0.00000       Uiso       1.00
        O1          H  0.5583881  0.5536517  0.4999938    0.00000       Uiso       1.00
        O1          H  0.4463490  0.0047364  0.4999938    0.00000       Uiso       1.00
        O1          H  0.0047365  0.5583882  0.4999938    0.00000       Uiso       1.00
        O1          H  0.4416125  0.4463490  0.4999938    0.00000       Uiso       1.00
        O1          H  0.5536517  0.9952642  0.4999938    0.00000       Uiso       1.00
       C49          C  0.1955853  0.6054965  0.4999938    0.00000       Uiso       1.00
       C50          C  0.2321741  0.6289488  0.4999938    0.00000       Uiso       1.00
       C49          C  0.3945042  0.5900894  0.4999938    0.00000       Uiso       1.00
       C50          C  0.3710519  0.6032260  0.4999938    0.00000       Uiso       1.00
       C49          C  0.4099113  0.8044154  0.4999938    0.00000       Uiso       1.00
       C50          C  0.3967747  0.7678266  0.4999938    0.00000       Uiso       1.00
       C49          C  0.8044154  0.3945041  0.4999938    0.00000       Uiso       1.00
       C50          C  0.7678266  0.3710519  0.4999938    0.00000       Uiso       1.00
       C49          C  0.6054965  0.4099113  0.4999938    0.00000       Uiso       1.00
       C50          C  0.6289488  0.3967747  0.4999938    0.00000       Uiso       1.00
       C49          C  0.5900894  0.1955853  0.4999938    0.00000       Uiso       1.00
       C50          C  0.6032260  0.2321741  0.4999938    0.00000       Uiso       1.00
       H25          H  0.1791272  0.6157249  0.4999938    0.00000       Uiso       1.00
       H26          H  0.2391305  0.6547478  0.4999938    0.00000       Uiso       1.00
       H25          H  0.3842758  0.5634030  0.4999938    0.00000       Uiso       1.00
       H26          H  0.3452528  0.5843832  0.4999938    0.00000       Uiso       1.00
       H25          H  0.4365976  0.8208734  0.4999938    0.00000       Uiso       1.00
       H26          H  0.4156174  0.7608702  0.4999938    0.00000       Uiso       1.00
       H25          H  0.8208734  0.3842758  0.4999938    0.00000       Uiso       1.00
       H26          H  0.7608702  0.3452528  0.4999938    0.00000       Uiso       1.00
       H25          H  0.6157249  0.4365976  0.4999938    0.00000       Uiso       1.00
       H26          H  0.6547478  0.4156174  0.4999938    0.00000       Uiso       1.00
       H25          H  0.5634031  0.1791272  0.4999938    0.00000       Uiso       1.00
       H26          H  0.5843832  0.2391304  0.4999938    0.00000       Uiso       1.00
       C55          C  0.3505286  0.7939450  0.4999938    0.00000       Uiso       1.00
       C56          C  0.3377331  0.7573942  0.4999938    0.00000       Uiso       1.00
       C55          C  0.2060557  0.5565844  0.4999938    0.00000       Uiso       1.00
       C56          C  0.2426065  0.5803396  0.4999938    0.00000       Uiso       1.00
       C55          C  0.4434163  0.6494721  0.4999938    0.00000       Uiso       1.00
       C56          C  0.4196611  0.6622676  0.4999938    0.00000       Uiso       1.00
       C55          C  0.6494721  0.2060557  0.4999938    0.00000       Uiso       1.00
       C56          C  0.6622676  0.2426065  0.4999938    0.00000       Uiso       1.00
       C55          C  0.7939450  0.4434163  0.4999938    0.00000       Uiso       1.00
       C56          C  0.7573941  0.4196611  0.4999938    0.00000       Uiso       1.00
       C55          C  0.5565843  0.3505286  0.4999938    0.00000       Uiso       1.00
       C56          C  0.5803396  0.3377331  0.4999938    0.00000       Uiso       1.00
       H31          H  0.3328210  0.8026809  0.4999938    0.00000       Uiso       1.00
       H32          H  0.3111079  0.7423745  0.4999938    0.00000       Uiso       1.00
       H31          H  0.1973198  0.5301408  0.4999938    0.00000       Uiso       1.00
       H32          H  0.2576261  0.5687340  0.4999938    0.00000       Uiso       1.00
       H31          H  0.4698598  0.6671796  0.4999938    0.00000       Uiso       1.00
       H32          H  0.4312667  0.6888928  0.4999938    0.00000       Uiso       1.00
       H31          H  0.6671796  0.1973198  0.4999938    0.00000       Uiso       1.00
       H32          H  0.6888928  0.2576261  0.4999938    0.00000       Uiso       1.00
       H31          H  0.8026809  0.4698598  0.4999938    0.00000       Uiso       1.00
       H32          H  0.7423745  0.4312667  0.4999938    0.00000       Uiso       1.00
       H31          H  0.5301408  0.3328210  0.4999938    0.00000       Uiso       1.00
       H32          H  0.5687340  0.3111079  0.4999938    0.00000       Uiso       1.00
        C1          C  0.3467684  0.7046708  0.4999938    0.00000       Uiso       1.00
        C2          C  0.2953299  0.6420984  0.4999938    0.00000       Uiso       1.00
        C3          C  0.3579023  0.6532322  0.4999938    0.00000       Uiso       1.00
        C4          C  0.3869560  0.8182161  0.4999938    0.00000       Uiso       1.00
        C5          C  0.1817846  0.5687406  0.4999938    0.00000       Uiso       1.00
        C6          C  0.4312601  0.6130447  0.4999938    0.00000       Uiso       1.00
        C7          C  0.3600597  0.7423003  0.4999938    0.00000       Uiso       1.00
        C8          C  0.2577004  0.6177601  0.4999938    0.00000       Uiso       1.00
        C9          C  0.3822405  0.6399409  0.4999938    0.00000       Uiso       1.00
       C10          C  0.3690562  0.6897572  0.4999938    0.00000       Uiso       1.00
       C11          C  0.3102435  0.6792997  0.4999938    0.00000       Uiso       1.00
       C12          C  0.3207011  0.6309445  0.4999938    0.00000       Uiso       1.00
        C1          C  0.6532322  0.2953299  0.4999938    0.00000       Uiso       1.00
        C2          C  0.7046707  0.3579023  0.4999938    0.00000       Uiso       1.00
        C3          C  0.6420984  0.3467684  0.4999938    0.00000       Uiso       1.00
        C4          C  0.6130447  0.1817846  0.4999938    0.00000       Uiso       1.00
        C5          C  0.8182161  0.4312601  0.4999938    0.00000       Uiso       1.00
        C6          C  0.5687405  0.3869560  0.4999938    0.00000       Uiso       1.00
        C7          C  0.6399409  0.2577004  0.4999938    0.00000       Uiso       1.00
        C8          C  0.7423003  0.3822405  0.4999938    0.00000       Uiso       1.00
        C9          C  0.6177601  0.3600597  0.4999938    0.00000       Uiso       1.00
       C10          C  0.6309445  0.3102435  0.4999938    0.00000       Uiso       1.00
       C11          C  0.6897572  0.3207011  0.4999938    0.00000       Uiso       1.00
       C12          C  0.6792996  0.3690562  0.4999938    0.00000       Uiso       1.00
        H1          H  0.2934878  0.6884923  0.4999938    0.00000       Uiso       1.00
        H2          H  0.3115084  0.6049961  0.4999938    0.00000       Uiso       1.00
        H3          H  0.3950045  0.7065129  0.4999938    0.00000       Uiso       1.00
        H1          H  0.7065129  0.3115084  0.4999938    0.00000       Uiso       1.00
        H2          H  0.6884923  0.3950045  0.4999938    0.00000       Uiso       1.00
        H3          H  0.6049961  0.2934878  0.4999938    0.00000       Uiso       1.00
