data_TFPT-COF
_audit_creation_date              0000-00-00
_audit_creation_method            'LanYouShi'
_symmetry_space_group_name_H-M    'P1'
_cell_length_a                    46.6799011
_cell_length_b                    46.7000999
_cell_length_c                    3.4000001
_cell_angle_alpha                 90.0000000
_cell_angle_beta                  90.0000000
_cell_angle_gamma                 60.0269012
loop_
_atom_site_label
_atom_site_type_symbol
_atom_site_fract_x
_atom_site_fract_y
_atom_site_fract_z
_atom_site_U_iso_or_equiv
_atom_site_adp_type
_atom_site_occupancy
        C1          C  0.4877248  0.5346320  1.4740269    0.00000       Uiso       1.00
        C2          C  0.5224826  0.5127847  1.4812806    0.00000       Uiso       1.00
        C3          C  0.5338463  0.4783375  1.4808775    0.00000       Uiso       1.00
        C4          C  0.5122539  0.4653851  1.4735804    0.00000       Uiso       1.00
        C5          C  0.4774936  0.4872294  1.4660542    0.00000       Uiso       1.00
        C6          C  0.4661307  0.5216778  1.4665596    0.00000       Uiso       1.00
        H1          H  0.5586656  0.4619563  1.4860226    0.00000       Uiso       1.00
        H2          H  0.4413092  0.5380515  1.4612386    0.00000       Uiso       1.00
        C7          C  0.4541608  0.4761017  1.4580599    0.00000       Uiso       1.00
        O1          O  0.4236800  0.4965040  1.4595768    0.00000       Uiso       1.00
        C8          C  0.5458188  0.5239061  1.4886730    0.00000       Uiso       1.00
        O2          O  0.5762714  0.5034865  1.5019172    0.00000       Uiso       1.00
        N1          N  0.4623862  0.4438784  1.4498602    0.00000       Uiso       1.00
        H3          H  0.4860982  0.4284740  1.4497154    0.00000       Uiso       1.00
        N2          N  0.5376301  0.5561206  1.4837898    0.00000       Uiso       1.00
        H4          H  0.5139326  0.5715343  1.4742979    0.00000       Uiso       1.00
        O3          O  0.5247537  0.4319347  1.4739530    0.00000       Uiso       1.00
        O4          O  0.4752422  0.5680816  1.4744107    0.00000       Uiso       1.00
        C9          C  0.5555663  0.3733505  1.4752605    0.00000       Uiso       1.00
       C10          C  0.5580550  0.4049395  1.4780753    0.00000       Uiso       1.00
        H5          H  0.5801831  0.3514764  1.4785720    0.00000       Uiso       1.00
        H6          H  0.5424866  0.3727764  1.2117852    0.00000       Uiso       1.00
        H7          H  0.5418966  0.3728857  1.7334145    0.00000       Uiso       1.00
        H8          H  0.5715337  0.4056875  1.2178400    0.00000       Uiso       1.00
        H9          H  0.5709692  0.4057483  1.7433767    0.00000       Uiso       1.00
       C11          C  0.4443913  0.6266693  1.4699856    0.00000       Uiso       1.00
       C12          C  0.4419394  0.5950607  1.4660447    0.00000       Uiso       1.00
       H10          H  0.4197690  0.6485264  1.4634217    0.00000       Uiso       1.00
       H11          H  0.4583151  0.6270582  1.2139586    0.00000       Uiso       1.00
       H12          H  0.4571926  0.6273490  1.7354739    0.00000       Uiso       1.00
       H13          H  0.4292849  0.5941404  1.1988150    0.00000       Uiso       1.00
       H14          H  0.4282210  0.5943843  1.7241744    0.00000       Uiso       1.00
        N3          N  0.5611686  0.5686341  1.4850231    0.00000       Uiso       1.00
       C13          C  0.5537439  0.5993713  1.4804095    0.00000       Uiso       1.00
       H15          H  0.5285162  0.6195412  1.4837487    0.00000       Uiso       1.00
        N4          N  0.4388911  0.4313353  1.4351507    0.00000       Uiso       1.00
       C14          C  0.4463604  0.4005892  1.4271635    0.00000       Uiso       1.00
       H16          H  0.4715716  0.3804354  1.4394472    0.00000       Uiso       1.00
       C15          C  0.9780822  0.4874805  1.3312984    0.00000       Uiso       1.00
       C16          C  0.9652295  0.5222167  1.3406750    0.00000       Uiso       1.00
       C17          C  0.9883066  0.5335900  1.3262690    0.00000       Uiso       1.00
       C18          C  0.0227917  0.5120271  1.3033758    0.00000       Uiso       1.00
       C19          C  0.0356488  0.4772887  1.2937245    0.00000       Uiso       1.00
       C20          C  0.0125702  0.4659161  1.3082336    0.00000       Uiso       1.00
       H17          H  0.9799091  0.5583943  1.3325099    0.00000       Uiso       1.00
       H18          H  0.0209767  0.4411097  1.3018121    0.00000       Uiso       1.00
       C21          C  0.0700450  0.4539864  1.2704214    0.00000       Uiso       1.00
        O5          O  0.0800995  0.4235167  1.2707396    0.00000       Uiso       1.00
       C22          C  0.9308345  0.5455229  1.3633744    0.00000       Uiso       1.00
        O6          O  0.9208742  0.5759508  1.3777848    0.00000       Uiso       1.00
        N5          N  0.0940075  0.4622299  1.2481685    0.00000       Uiso       1.00
       H19          H  0.0857222  0.4859320  1.2492070    0.00000       Uiso       1.00
        N6          N  0.9068005  0.5373283  1.3725655    0.00000       Uiso       1.00
       H20          H  0.9150302  0.5136494  1.3619089    0.00000       Uiso       1.00
        O7          O  0.0437403  0.5245345  1.2907358    0.00000       Uiso       1.00
        O8          O  0.9571195  0.4749897  1.3447007    0.00000       Uiso       1.00
       C23          C  0.0715228  0.5553529  1.2728175    0.00000       Uiso       1.00
       C24          C  0.0374766  0.5578209  1.2936302    0.00000       Uiso       1.00
       H21          H  0.0688112  0.5799595  1.2741880    0.00000       Uiso       1.00
       H22          H  0.0842850  0.5425266  1.0040243    0.00000       Uiso       1.00
       H23          H  0.0864949  0.5414553  1.5250442    0.00000       Uiso       1.00
       H24          H  0.0224055  0.5715294  1.0394000    0.00000       Uiso       1.00
       H25          H  0.0246513  0.5704800  1.5643083    0.00000       Uiso       1.00
       C25          C  0.9293615  0.4441359  1.3594906    0.00000       Uiso       1.00
       C26          C  0.9633868  0.4417057  1.3375568    0.00000       Uiso       1.00
       H26          H  0.9320847  0.4195268  1.3548591    0.00000       Uiso       1.00
       H27          H  0.9142185  0.4582855  1.1094499    0.00000       Uiso       1.00
       H28          H  0.9167786  0.4566820  1.6302407    0.00000       Uiso       1.00
       H29          H  0.9760578  0.4293079  1.0649960    0.00000       Uiso       1.00
       H30          H  0.9786190  0.4277595  1.5896261    0.00000       Uiso       1.00
        N7          N  0.8707917  0.5608415  1.3899413    0.00000       Uiso       1.00
       C27          C  0.8474722  0.5534109  1.3989116    0.00000       Uiso       1.00
       H31          H  0.8525190  0.5281887  1.4030244    0.00000       Uiso       1.00
        N8          N  0.1299580  0.4387724  1.2173291    0.00000       Uiso       1.00
       C28          C  0.1532001  0.4462592  1.1957815    0.00000       Uiso       1.00
       H32          H  0.1482054  0.4714505  1.2072805    0.00000       Uiso       1.00
       C29          C  0.5350338  0.9776262  1.3592691    0.00000       Uiso       1.00
       C30          C  0.5131847  0.9647567  1.3822019    0.00000       Uiso       1.00
       C31          C  0.4787243  0.9878240  1.3831531    0.00000       Uiso       1.00
       C32          C  0.4657612  0.0223135  1.3624517    0.00000       Uiso       1.00
       C33          C  0.4876071  0.0351878  1.3392451    0.00000       Uiso       1.00
       C34          C  0.5220687  0.0121190  1.3383968    0.00000       Uiso       1.00
       H33          H  0.4623415  0.9794142  1.3993862    0.00000       Uiso       1.00
       H34          H  0.5384438  0.0205378  1.3219857    0.00000       Uiso       1.00
       C35          C  0.4764683  0.0695917  1.3171626    0.00000       Uiso       1.00
        O9          O  0.4968800  0.0796541  1.3050954    0.00000       Uiso       1.00
       C36          C  0.5243164  0.9303545  1.4036838    0.00000       Uiso       1.00
       O10          O  0.5039012  0.9203727  1.4304825    0.00000       Uiso       1.00
        N9          N  0.4442255  0.0935526  1.3089423    0.00000       Uiso       1.00
       H35          H  0.4288150  0.0852603  1.3194288    0.00000       Uiso       1.00
       N10          N  0.5565383  0.9063343  1.3988508    0.00000       Uiso       1.00
       H36          H  0.5719492  0.9145798  1.3787445    0.00000       Uiso       1.00
       O11          O  0.4322988  0.0432517  1.3649273    0.00000       Uiso       1.00
       O12          O  0.5684961  0.9566733  1.3575586    0.00000       Uiso       1.00
       C37          C  0.3736939  0.0710141  1.3747177    0.00000       Uiso       1.00
       C38          C  0.4052970  0.0369729  1.3832357    0.00000       Uiso       1.00
       H37          H  0.3518146  0.0682906  1.3882504    0.00000       Uiso       1.00
       H38          H  0.3728761  0.0840216  1.1043425    0.00000       Uiso       1.00
       H39          H  0.3734679  0.0857492  1.6252370    0.00000       Uiso       1.00
       H40          H  0.4058044  0.0221408  1.1305730    0.00000       Uiso       1.00
       H41          H  0.4063511  0.0239008  1.6553788    0.00000       Uiso       1.00
       C39          C  0.6271015  0.9289383  1.3446331    0.00000       Uiso       1.00
       C40          C  0.5954778  0.9629596  1.3350068    0.00000       Uiso       1.00
       H42          H  0.6489610  0.9316763  1.3278455    0.00000       Uiso       1.00
       H43          H  0.6272536  0.9140303  1.0963653    0.00000       Uiso       1.00
       H44          H  0.6280267  0.9161084  1.6168844    0.00000       Uiso       1.00
       H45          H  0.5943103  0.9758792  1.0610616    0.00000       Uiso       1.00
       H46          H  0.5950401  0.9779546  1.5854466    0.00000       Uiso       1.00
       N11          N  0.5690572  0.8703243  1.4144799    0.00000       Uiso       1.00
       C41          C  0.5998013  0.8470178  1.4101231    0.00000       Uiso       1.00
       H47          H  0.6199821  0.8520700  1.4026713    0.00000       Uiso       1.00
       N12          N  0.4316646  0.1295166  1.2798674    0.00000       Uiso       1.00
       C42          C  0.4008999  0.1527574  1.2716565    0.00000       Uiso       1.00
       H48          H  0.3807497  0.1477429  1.2947116    0.00000       Uiso       1.00
       C43          C  0.5642554  0.6496302  1.4657810    0.00000       Uiso       1.00
       C44          C  0.5853101  0.6626176  1.4562652    0.00000       Uiso       1.00
       H49          H  0.5377932  0.6663529  1.4702841    0.00000       Uiso       1.00
       H50          H  0.5747671  0.6891775  1.4535694    0.00000       Uiso       1.00
       C45          C  0.7866971  0.5639021  1.4155527    0.00000       Uiso       1.00
       C46          C  0.7526595  0.5849432  1.4214509    0.00000       Uiso       1.00
       H51          H  0.7964260  0.5374470  1.4184794    0.00000       Uiso       1.00
       H52          H  0.7366352  0.5743969  1.4288423    0.00000       Uiso       1.00
       C47          C  0.6500649  0.7862675  1.4081106    0.00000       Uiso       1.00
       C48          C  0.6630478  0.7522391  1.4117284    0.00000       Uiso       1.00
       H53          H  0.6667983  0.7960000  1.4006808    0.00000       Uiso       1.00
       H54          H  0.6896151  0.7362255  1.4070324    0.00000       Uiso       1.00
       C49          C  0.5913751  0.7954509  1.4243946    0.00000       Uiso       1.00
       C50          C  0.6037049  0.7615247  1.4281937    0.00000       Uiso       1.00
       H55          H  0.5648712  0.8119488  1.4289615    0.00000       Uiso       1.00
       H56          H  0.5865174  0.7523574  1.4356380    0.00000       Uiso       1.00
       C51          C  0.7958998  0.6133842  1.4015088    0.00000       Uiso       1.00
       C52          C  0.7619646  0.6349760  1.4072506    0.00000       Uiso       1.00
       H57          H  0.8124084  0.6233832  1.3940892    0.00000       Uiso       1.00
       H58          H  0.7528012  0.6613200  1.4041721    0.00000       Uiso       1.00
       C53          C  0.6137425  0.5909648  1.4635408    0.00000       Uiso       1.00
       C54          C  0.6353479  0.6032992  1.4540000    0.00000       Uiso       1.00
       H59          H  0.6237378  0.5644679  1.4663936    0.00000       Uiso       1.00
       H60          H  0.6616989  0.5861224  1.4496343    0.00000       Uiso       1.00
       C55          C  0.6541839  0.7010219  1.4260578    0.00000       Uiso       1.00
       C56          C  0.6139982  0.8089046  1.4142830    0.00000       Uiso       1.00
       C57          C  0.6404479  0.7378976  1.4220330    0.00000       Uiso       1.00
       C58          C  0.6453966  0.6537734  1.4394677    0.00000       Uiso       1.00
       C59          C  0.5776704  0.6135733  1.4697214    0.00000       Uiso       1.00
       C60          C  0.6222469  0.6400325  1.4498088    0.00000       Uiso       1.00
       C61          C  0.7014369  0.6450046  1.4239187    0.00000       Uiso       1.00
       C62          C  0.8093488  0.5773219  1.4054399    0.00000       Uiso       1.00
       C63          C  0.7383226  0.6218698  1.4176024    0.00000       Uiso       1.00
       C64          N  0.6883772  0.6792853  1.4202679    0.00000       Uiso       1.00
       C65          N  0.6329535  0.6879576  1.4356458    0.00000       Uiso       1.00
       C66          N  0.6796867  0.6325569  1.4335303    0.00000       Uiso       1.00
       C67          C  0.4359726  0.3502913  1.3946016    0.00000       Uiso       1.00
       C68          C  0.4149911  0.3372743  1.3703989    0.00000       Uiso       1.00
       H64          H  0.4624088  0.3335880  1.4095608    0.00000       Uiso       1.00
       H65          H  0.4255633  0.3107111  1.3670504    0.00000       Uiso       1.00
       C69          C  0.2138596  0.4358275  1.2431973    0.00000       Uiso       1.00
       C70          C  0.2478627  0.4148115  1.2626584    0.00000       Uiso       1.00
       H66          H  0.2040998  0.4622867  1.2471975    0.00000       Uiso       1.00
       H67          H  0.2638300  0.4253807  1.2813880    0.00000       Uiso       1.00
       C71          C  0.3506281  0.2134870  1.2568026    0.00000       Uiso       1.00
       C72          C  0.3376065  0.2475201  1.2615442    0.00000       Uiso       1.00
       H68          H  0.3339518  0.2037311  1.2378432    0.00000       Uiso       1.00
       H69          H  0.3110670  0.2635139  1.2461630    0.00000       Uiso       1.00
       C73          C  0.4092044  0.2043616  1.3030349    0.00000       Uiso       1.00
       C74          C  0.3968347  0.2382932  1.3082912    0.00000       Uiso       1.00
       H70          H  0.4356817  0.1878831  1.3181354    0.00000       Uiso       1.00
       H71          H  0.4139653  0.2474839  1.3273773    0.00000       Uiso       1.00
       C75          C  0.2047762  0.3863083  1.2121255    0.00000       Uiso       1.00
       C76          C  0.2386782  0.3647412  1.2312406    0.00000       Uiso       1.00
       H72          H  0.1883245  0.3762862  1.1932348    0.00000       Uiso       1.00
       H73          H  0.2478735  0.3383926  1.2268054    0.00000       Uiso       1.00
       C77          C  0.3864799  0.4089358  1.3794409    0.00000       Uiso       1.00
       C78          C  0.3649474  0.3965714  1.3550695    0.00000       Uiso       1.00
       H74          H  0.3764541  0.4354365  1.3832312    0.00000       Uiso       1.00
       H75          H  0.3386215  0.4137293  1.3404186    0.00000       Uiso       1.00
       C79          C  0.3463485  0.2987750  1.2931362    0.00000       Uiso       1.00
       C80          C  0.3866589  0.1908761  1.2772639    0.00000       Uiso       1.00
       C81          C  0.3601271  0.2618938  1.2877108    0.00000       Uiso       1.00
       C82          C  0.3550219  0.3460588  1.3228053    0.00000       Uiso       1.00
       C83          C  0.4225159  0.3863537  1.3999202    0.00000       Uiso       1.00
       C84          C  0.3780922  0.3598321  1.3491641    0.00000       Uiso       1.00
       C85          C  0.2990899  0.3547721  1.2786599    0.00000       Uiso       1.00
       C86          C  0.1912855  0.4223759  1.2174174    0.00000       Uiso       1.00
       C87          C  0.2622410  0.3778800  1.2577264    0.00000       Uiso       1.00
       C88          N  0.3121886  0.3204866  1.2738664    0.00000       Uiso       1.00
       C89          N  0.3675051  0.3118691  1.3175260    0.00000       Uiso       1.00
       C90          N  0.3207666  0.3672501  1.3032091    0.00000       Uiso       1.00
