data_crystal

_cell_length_a    32.17000
_cell_length_b    32.10000
_cell_length_c    12.22400
_cell_angle_alpha 91.40000
_cell_angle_beta  90.70000
_cell_angle_gamma 121.30000

_space_group_name_Hall 'P 1'
_space_group_name_H-M_alt 'P 1'

loop_
_symmetry_equiv_pos_as_xyz
 'x,y,z'

loop_
_atom_site_label
_atom_site_type_symbol
_atom_site_fract_x
_atom_site_fract_y
_atom_site_fract_z
C          C       0.98406   0.16168   0.35141
N          N       0.02998   0.16195   0.36798
C          C       0.98937   0.21150   0.36809
C          C       0.07374   0.20218   0.32244
C          C       0.11130   0.18732   0.30162
N          N       0.11493   0.15971   0.39311
C          C       0.09368   0.16502   0.49325
C          C       0.03923   0.14618   0.47393
C          C       0.98540   0.23686   0.28161
C          C       0.99152   0.28251   0.29762
C          C       0.00484   0.30639   0.40013
C          C       0.01021   0.28188   0.48635
C          C       0.00251   0.23546   0.47084
N          N       0.46348   0.33455   0.02980
C          C       0.42166   0.30121   0.09401
C          C       0.39129   0.32418   0.12238
N          N       0.37639   0.33817   0.02295
C          C       0.41755   0.36917   0.45514
C          C       0.44568   0.34397   0.42827
C          C       0.33540   0.34708   0.02656
N          N       0.33958   0.37733   0.12431
C          C       0.38572   0.42484   0.12815
C          C       0.38836   0.46027   0.21854
N          N       0.34881   0.46984   0.21100
C          C       0.30426   0.42206   0.21838
C          C       0.29819   0.38476   0.12844
N          N       0.60993   0.46971   0.41346
C          C       0.61289   0.42821   0.37271
C          C       0.56511   0.37993   0.38999
N          N       0.55058   0.37396   0.00458
C          C       0.55289   0.41782   0.05019
C          C       0.60174   0.46436   0.03085
C          C       0.50591   0.32781   0.03036
C          C       0.49925   0.28121   0.47716
C          C       0.51708   0.25538   0.03016
C          C       0.51592   0.21563   0.47978
C          C       0.49955   0.20141   0.37150
C          C       0.48015   0.22610   0.31973
C          C       0.48080   0.26546   0.37060
C          C       0.50066   0.15997   0.31066
C          C       0.81344   0.81900   0.47930
N          N       0.82911   0.87151   0.49488
C          C       0.77524   0.78317   0.05745
C          C       0.80674   0.89262   0.42857
C          C       0.83985   0.94845   0.43035
N          N       0.84860   0.96981   0.04401
C          C       0.83553   0.93431   0.12968
C          C       0.85155   0.89801   0.10134
C          C       0.76608   0.73584   0.06655
C          C       0.72848   0.70172   0.12838
C          C       0.69753   0.71276   0.18405
C          C       0.70589   0.75967   0.17240
C          C       0.74346   0.79376   0.11066
N          N       0.68485   0.13502   0.30638
C          C       0.71685   0.11791   0.34076
C          C       0.69207   0.06346   0.31154
N          N       0.67785   0.05143   0.19556
C          C       0.65268   0.07515   0.15296
C          C       0.67957   0.12989   0.18657
C          C       0.65958   0.99914   0.16371
N          N       0.62770   0.96762   0.25017
C          C       0.58091   0.96398   0.26700
C          C       0.56384   0.94734   0.38333
N          N       0.55922   0.90090   0.41104
C          C       0.60475   0.90405   0.38150
C          C       0.61894   0.91846   0.26285
N          N       0.54680   0.16079   0.31765
C          C       0.59122   0.20754   0.29919
C          C       0.63357   0.19985   0.27549
N          N       0.64071   0.17468   0.36530
C          C       0.59621   0.12824   0.38327
C          C       0.55511   0.13724   0.40958
C          C       0.68632   0.17467   0.37503
C          C       0.73265   0.22446   0.38629
C          C       0.74006   0.25303   0.48114
C          C       0.78114   0.29895   0.49695
C          C       0.81650   0.31850   0.41799
C          C       0.80784   0.29116   0.32062
C          C       0.76661   0.24522   0.30469
C          C       0.86284   0.36794   0.43534
C          C       0.16928   0.03074   0.07663
N          N       0.12116   0.98621   0.04966
C          C       0.21190   0.02299   0.08551
C          C       0.10877   0.96821   0.43284
C          C       0.08417   0.91229   0.42206
N          N       0.04039   0.88849   0.48763
C          C       0.04786   0.90954   0.10137
C          C       0.10178   0.94682   0.12710
C          C       0.24947   0.04165   0.01120
C          C       0.28922   0.03620   0.02559
C          C       0.29239   0.01005   0.11180
C          C       0.25431   0.99089   0.18456
C          C       0.21542   0.99750   0.17209
N          N       0.88133   0.56965   0.37626
C          C       0.90801   0.62141   0.41035
C          C       0.95858   0.64825   0.35891
N          N       0.95516   0.64141   0.23939
C          C       0.92646   0.58968   0.20889
C          C       0.87601   0.56774   0.25738
C          C       0.00019   0.67182   0.17694
N          N       0.04031   0.67213   0.23909
C          C       0.04968   0.63229   0.22202
C          C       0.06164   0.61882   0.33282
N          N       0.10389   0.65996   0.38987
C          C       0.09469   0.70012   0.40082
C          C       0.08189   0.71526   0.29333
N          N       0.85793   0.41088   0.43619
C          C       0.82325   0.41043   0.35742
C          C       0.83425   0.46255   0.34196
N          N       0.83391   0.48656   0.44509
C          C       0.86716   0.48421   0.02316
C          C       0.85344   0.43146   0.03990
C          C       0.83844   0.53542   0.44066
C          C       0.79099   0.53402   0.42155
C          C       0.76960   0.54454   0.00818
C          C       0.72483   0.54055   0.49546
C          C       0.70007   0.52760   0.39448
C          C       0.72095   0.51604   0.30862
C          C       0.76519   0.51912   0.32184
C          C       0.64879   0.51783   0.37905
C          C       0.00216   0.83622   0.46515
N          N       0.95436   0.83334   0.46730
C          C       0.00479   0.79715   0.02941
C          C       0.93392   0.84119   0.36609
C          C       0.89391   0.85237   0.39229
N          N       0.85817   0.81758   0.46745
C          C       0.88139   0.81319   0.06976
C          C       0.93720   0.84435   0.06797
C          C       0.04772   0.79697   0.04709
C          C       0.04775   0.75850   0.09689
C          C       0.00505   0.71893   0.13541
C          C       0.96211   0.71856   0.11368
C          C       0.96189   0.75599   0.06122
N          N       0.55489   0.68272   0.46419
C          C       0.60724   0.71531   0.48406
C          C       0.63516   0.69585   0.41985
N          N       0.62311   0.68933   0.30199
C          C       0.57047   0.65922   0.28610
C          C       0.54561   0.68199   0.34731
C          C       0.64987   0.67269   0.23221
N          N       0.64866   0.63135   0.28793
C          C       0.61057   0.58043   0.26174
C          C       0.59613   0.55228   0.36824
N          N       0.63700   0.55325   0.42515
C          C       0.67549   0.60449   0.44399
C          C       0.69151   0.63490   0.34122
N          N       0.39935   0.54102   0.10714
C          C       0.42067   0.55016   0.49889
C          C       0.47333   0.59411   0.00124
N          N       0.47470   0.63830   0.04063
C          C       0.45473   0.62844   0.14980
C          C       0.40242   0.58546   0.14924
C          C       0.51994   0.68704   0.03498
C          C       0.51126   0.72784   0.00718
C          C       0.53780   0.77367   0.05997
C          C       0.53572   0.81286   0.02221
C          C       0.51038   0.80933   0.42551
C          C       0.48130   0.76282   0.37699
C          C       0.48150   0.72307   0.41779
C          C       0.51527   0.85467   0.37479
C          C       0.16019   0.15872   0.40303
N          N       0.16299   0.13386   0.30283
C          C       0.20541   0.20736   0.43706
C          C       0.20510   0.12811   0.30287
C          C       0.20818   0.10436   0.19521
N          N       0.16471   0.05633   0.17295
C          C       0.12244   0.06194   0.17234
C          C       0.11957   0.08553   0.28070
C          C       0.23048   0.24304   0.36102
C          C       0.27080   0.28798   0.39072
C          C       0.28723   0.30024   0.49960
C          C       0.26205   0.26470   0.07592
C          C       0.22113   0.21991   0.04629
N          N       0.34308   0.89895   0.33063
C          C       0.31344   0.91945   0.36256
C          C       0.33382   0.96998   0.31435
N          N       0.33227   0.96603   0.19464
C          C       0.36137   0.94501   0.16317
C          C       0.33970   0.89436   0.21118
C          C       0.33810   0.00780   0.13095
N          N       0.38193   0.05324   0.17384
C          C       0.43164   0.06615   0.14788
C          C       0.46003   0.07249   0.25466
N          N       0.46227   0.10970   0.33126
C          C       0.41275   0.09886   0.35109
C          C       0.38180   0.09050   0.24679
N          N       0.47268   0.86063   0.37657
C          C       0.43065   0.82507   0.30988
C          C       0.39601   0.84361   0.29189
N          N       0.37837   0.85093   0.39586
C          C       0.42034   0.88551   0.46546
C          C       0.45592   0.86742   0.48229
C          C       0.33498   0.85660   0.39440
C          C       0.28583   0.80956   0.37993
C          C       0.25459   0.79121   0.46774
C          C       0.21086   0.74703   0.45883
C          C       0.19561   0.71955   0.36085
C          C       0.22688   0.73784   0.27323
C          C       0.27060   0.78189   0.28221
C          C       0.15091   0.66843   0.35086
C          C       0.84384   0.01253   0.06813
N          N       0.87920   0.04041   0.15745
C          C       0.79286   0.00257   0.08651
C          C       0.93048   0.05865   0.13256
C          C       0.96447   0.09063   0.22820
N          N       0.96343   0.13599   0.24551
C          C       0.91569   0.12849   0.21024
C          C       0.87384   0.07636   0.22599
C          C       0.76578   0.00888   0.00593
C          C       0.72163   0.00450   0.02958
C          C       0.70207   0.99313   0.13357
C          C       0.72887   0.98553   0.21241
C          C       0.77165   0.98756   0.18784
N          N       0.14390   0.48809   0.02607
C          C       0.11856   0.45122   0.10729
C          C       0.06567   0.41581   0.06915
N          N       0.06230   0.39338   0.46072
C          C       0.09243   0.42964   0.38231
C          C       0.14450   0.46299   0.42572
C          C       0.01302   0.35717   0.41434
N          N       0.97686   0.36305   0.47413
C          C       0.97393   0.40499   0.44095
C          C       0.94414   0.41497   0.02241
N          N       0.89432   0.37367   0.03013
C          C       0.89759   0.33137   0.05809
C          C       0.92772   0.32037   0.47930
N          N       0.15685   0.62988   0.39752
C          C       0.20068   0.62978   0.36756
C          C       0.19740   0.58240   0.40219
N          N       0.19167   0.57609   0.02016
C          C       0.14918   0.57864   0.05107
C          C       0.15268   0.62577   0.01597
C          C       0.18973   0.53258   0.06558
C          C       0.23445   0.52795   0.07195
C          C       0.25642   0.53241   0.17411
C          C       0.29261   0.52179   0.18757
C          C       0.30827   0.50551   0.09979
C          C       0.28932   0.50495   0.49632
C          C       0.25319   0.51578   0.48286
C          C       0.34991   0.49648   0.11296
H          H       0.95902   0.13849   0.41513
H          H       0.06500   0.21254   0.24402
H          H       0.08980   0.23520   0.37714
H          H       0.14598   0.22050   0.28403
H          H       0.10023   0.16378   0.22682
H          H       0.11315   0.20340   0.02450
H          H       0.02621   0.15780   0.04449
H          H       0.01866   0.10589   0.47235
H          H       0.97680   0.22009   0.19876
H          H       0.98690   0.30076   0.22762
H          H       0.02191   0.30063   0.06718
H          H       0.00786   0.21729   0.03997
H          H       0.39838   0.26578   0.04944
H          H       0.43376   0.29320   0.17097
H          H       0.41311   0.35564   0.17974
H          H       0.35906   0.29770   0.16682
H          H       0.44277   0.40522   0.49495
H          H       0.40457   0.37597   0.37762
H          H       0.47534   0.36805   0.37534
H          H       0.42136   0.31001   0.37978
H          H       0.34036   0.36992   0.45559
H          H       0.41645   0.41968   0.14385
H          H       0.39251   0.44279   0.04879
H          H       0.42403   0.49453   0.21667
H          H       0.38713   0.44490   0.29924
H          H       0.27192   0.42552   0.21608
H          H       0.30468   0.40759   0.29931
H          H       0.29181   0.39651   0.04885
H          H       0.26468   0.34982   0.14443
H          H       0.61963   0.43083   0.28420
H          H       0.64329   0.42706   0.41295
H          H       0.57045   0.35003   0.36311
H          H       0.53746   0.37854   0.33341
H          H       0.54679   0.41419   0.13891
H          H       0.52438   0.42313   0.01405
H          H       0.63129   0.46329   0.07537
H          H       0.60009   0.49520   0.06713
H          H       0.51133   0.32491   0.11889
H          H       0.53283   0.26710   0.11365
H          H       0.52994   0.19612   0.02486
H          H       0.46546   0.21510   0.23531
H          H       0.46743   0.28534   0.32493
H          H       0.49747   0.16642   0.22307
H          H       0.79533   0.80765   0.39711
H          H       0.80155   0.87857   0.34325
H          H       0.77037   0.88257   0.45760
H          H       0.82367   0.96368   0.37733
H          H       0.87503   0.95789   0.39513
H          H       0.79597   0.91401   0.14372
H          H       0.85385   0.95357   0.20742
H          H       0.84183   0.87283   0.16883
H          H       0.89162   0.91820   0.09690
H          H       0.78915   0.72548   0.02237
H          H       0.72241   0.66483   0.13264
H          H       0.68155   0.76947   0.21257
H          H       0.74819   0.83000   0.10306
H          H       0.75273   0.13832   0.30240
H          H       0.72394   0.12269   0.42995
H          H       0.66047   0.04421   0.36483
H          H       0.71779   0.05185   0.33230
H          H       0.61510   0.05874   0.18121
H          H       0.64996   0.07114   0.06287
H          H       0.65851   0.14491   0.15332
H          H       0.71527   0.14922   0.14722
H          H       0.63718   0.99032   0.08787
H          H       0.58364   0.99927   0.26051
H          H       0.55288   0.93890   0.20553
H          H       0.52987   0.94694   0.39638
H          H       0.59106   0.97568   0.44117
H          H       0.60320   0.86954   0.39544
H          H       0.63425   0.93173   0.43630
H          H       0.58993   0.89172   0.20575
H          H       0.65066   0.91537   0.24628
H          H       0.58576   0.22504   0.22855
H          H       0.60134   0.23329   0.37039
H          H       0.66678   0.23561   0.26444
H          H       0.62499   0.17919   0.19661
H          H       0.60155   0.11012   0.45277
H          H       0.58542   0.10277   0.31133
H          H       0.56533   0.15971   0.48631
H          H       0.52238   0.10201   0.42685
H          H       0.68346   0.16013   0.45788
H          H       0.71267   0.23839   0.04503
H          H       0.78662   0.32038   0.07313
H          H       0.83448   0.30633   0.25533
H          H       0.76102   0.22439   0.22765
H          H       0.88324   0.37192   0.36012
H          H       0.17605   0.05412   0.00595
H          H       0.08348   0.97846   0.39897
H          H       0.14118   0.98524   0.38216
H          H       0.11065   0.90180   0.44608
H          H       0.07428   0.90079   0.33539
H          H       0.03447   0.88118   0.16268
H          H       0.02751   0.92837   0.11097
H          H       0.12204   0.92761   0.12729
H          H       0.10504   0.96217   0.21036
H          H       0.24806   0.06203   0.44165
H          H       0.31899   0.05266   0.46757
H          H       0.25424   0.96934   0.25283
H          H       0.18698   0.98312   0.23345
H          H       0.88768   0.63922   0.38724
H          H       0.91320   0.62600   0.49981
H          H       0.98052   0.63460   0.39615
H          H       0.97695   0.68746   0.38146
H          H       0.94340   0.56950   0.23875
H          H       0.92297   0.58449   0.11930
H          H       0.85249   0.53044   0.22508
H          H       0.85905   0.58819   0.22925
H          H       0.99547   0.65101   0.09950
H          H       0.01777   0.59970   0.18438
H          H       0.07977   0.64292   0.16527
H          H       0.06729   0.58795   0.32153
H          H       0.02976   0.60576   0.38526
H          H       0.12523   0.73234   0.44310
H          H       0.06341   0.68760   0.45513
H          H       0.11376   0.73187   0.24024
H          H       0.07320   0.74347   0.31329
H          H       0.82587   0.39570   0.27710
H          H       0.78523   0.38693   0.38314
H          H       0.80673   0.46020   0.28367
H          H       0.87013   0.48301   0.30347
H          H       0.86587   0.49960   0.10291
H          H       0.90536   0.50560   0.49695
H          H       0.81619   0.41032   0.07146
H          H       0.87797   0.43224   0.10452
H          H       0.84949   0.55021   0.02535
H          H       0.78834   0.55570   0.08887
H          H       0.70837   0.54796   0.06584
H          H       0.70152   0.50345   0.22881
H          H       0.77939   0.50855   0.25232
H          H       0.64333   0.51635   0.28909
H          H       0.00602   0.82811   0.37868
H          H       0.96213   0.87146   0.31949
H          H       0.91839   0.80798   0.31258
H          H       0.87527   0.85145   0.31534
H          H       0.91143   0.89032   0.42589
H          H       0.87051   0.77469   0.07786
H          H       0.86918   0.82325   0.14386
H          H       0.95195   0.83603   0.14014
H          H       0.94925   0.88344   0.07615
H          H       0.08215   0.82786   0.01948
H          H       0.08212   0.75926   0.10683
H          H       0.92715   0.68748   0.13877
H          H       0.92681   0.75310   0.04460
H          H       0.61975   0.75305   0.46060
H          H       0.61638   0.71722   0.07176
H          H       0.62613   0.66098   0.45602
H          H       0.67462   0.72115   0.43300
H          H       0.55594   0.62202   0.31600
H          H       0.56078   0.65510   0.19826
H          H       0.50635   0.66040   0.33039
H          H       0.55855   0.71891   0.31718
H          H       0.62663   0.65638   0.15723
H          H       0.57806   0.57798   0.22440
H          H       0.62315   0.56344   0.20150
H          H       0.56632   0.51431   0.35153
H          H       0.58146   0.56903   0.42355
H          H       0.70753   0.60802   0.48628
H          H       0.66084   0.62061   0.00108
H          H       0.70963   0.62192   0.28578
H          H       0.71865   0.67291   0.36606
H          H       0.42099   0.51782   0.46772
H          H       0.39902   0.55693   0.43867
H          H       0.48626   0.59745   0.41731
H          H       0.49680   0.58609   0.05239
H          H       0.45582   0.66077   0.18597
H          H       0.47601   0.61881   0.20349
H          H       0.37947   0.59504   0.10078
H          H       0.39009   0.58063   0.23428
H          H       0.53765   0.69679   0.11706
H          H       0.56101   0.77883   0.13204
H          H       0.55740   0.84876   0.06429
H          H       0.45950   0.75786   0.30250
H          H       0.45871   0.68691   0.37716
H          H       0.51915   0.84982   0.28597
H          H       0.15412   0.13422   0.47113
H          H       0.23906   0.16392   0.31361
H          H       0.20436   0.10585   0.37132
H          H       0.24067   0.10128   0.20214
H          H       0.21463   0.12921   0.12771
H          H       0.08847   0.02614   0.16189
H          H       0.12293   0.08401   0.10385
H          H       0.11373   0.06058   0.34764
H          H       0.08670   0.08802   0.27544
H          H       0.21814   0.23420   0.27498
H          H       0.29038   0.31458   0.32732
H          H       0.27569   0.27306   0.16117
H          H       0.20155   0.19300   0.10910
H          H       0.27494   0.89541   0.33487
H          H       0.31285   0.92315   0.45198
H          H       0.37137   0.99354   0.34739
H          H       0.31326   0.98629   0.34471
H          H       0.39969   0.96786   0.19257
H          H       0.36254   0.94180   0.07383
H          H       0.35902   0.87737   0.17807
H          H       0.30151   0.87134   0.18080
H          H       0.34740   0.00135   0.04807
H          H       0.43176   0.03798   0.09516
H          H       0.44998   0.10019   0.10223
H          H       0.49678   0.08063   0.23493
H          H       0.44267   0.03742   0.29604
H          H       0.41352   0.12760   0.40372
H          H       0.39460   0.06553   0.39893
H          H       0.39649   0.12502   0.20358
H          H       0.34480   0.07978   0.27065
H          H       0.44218   0.81951   0.22902
H          H       0.41071   0.78904   0.34771
H          H       0.36585   0.81679   0.23797
H          H       0.41624   0.87801   0.24778
H          H       0.40838   0.89025   0.04622
H          H       0.44007   0.92207   0.42985
H          H       0.43765   0.83319   0.02756
H          H       0.48691   0.89444   0.03466
H          H       0.33518   0.86894   0.47956
H          H       0.26508   0.81188   0.04638
H          H       0.18747   0.73308   0.03005
H          H       0.21694   0.71661   0.19534
H          H       0.29392   0.79456   0.21094
H          H       0.14629   0.65961   0.26179
H          H       0.85661   0.03485   0.49461
H          H       0.93552   0.02756   0.11761
H          H       0.94137   0.07997   0.05756
H          H       0.00195   0.10010   0.21152
H          H       0.95346   0.06845   0.30200
H          H       0.91670   0.13659   0.12271
H          H       0.90721   0.15314   0.25511
H          H       0.84001   0.07569   0.20769
H          H       0.87320   0.06778   0.31304
H          H       0.78104   0.02004   0.42447
H          H       0.70136   0.01091   0.46629
H          H       0.71576   0.97790   0.29634
H          H       0.79180   0.98150   0.25218
H          H       0.13715   0.43112   0.12470
H          H       0.11773   0.46886   0.18492
H          H       0.04759   0.43707   0.07150
H          H       0.04745   0.38703   0.12909
H          H       0.07749   0.45256   0.35942
H          H       0.09329   0.41046   0.30717
H          H       0.16494   0.48853   0.36146
H          H       0.16140   0.44095   0.43881
H          H       0.01137   0.36740   0.32934
H          H       0.01032   0.43814   0.43839
H          H       0.95811   0.39936   0.35714
H          H       0.94453   0.44819   0.49987
H          H       0.96222   0.42295   0.10420
H          H       0.86116   0.29859   0.06495
H          H       0.91504   0.33896   0.14060
H          H       0.90934   0.30881   0.39760
H          H       0.92883   0.28910   0.01097
H          H       0.20488   0.63216   0.27814
H          H       0.23402   0.66146   0.40508
H          H       0.23072   0.58349   0.37759
H          H       0.16640   0.55220   0.35498
H          H       0.14533   0.57656   0.14062
H          H       0.11508   0.54754   0.01448
H          H       0.18387   0.65718   0.05995
H          H       0.11956   0.62455   0.04303
H          H       0.18310   0.53693   0.15253
H          H       0.24458   0.54452   0.24547
H          H       0.30932   0.52565   0.26890
H          H       0.30248   0.49410   0.42495
H          H       0.23830   0.51343   0.40048
H          H       0.34610   0.47313   0.04087
H          H       0.09706   0.14367   0.05814
C          C       0.98406   0.16168   0.85142
N          N       0.02998   0.16195   0.86798
C          C       0.98937   0.21150   0.86809
C          C       0.07374   0.20218   0.82244
C          C       0.11130   0.18732   0.80162
N          N       0.11493   0.15971   0.89311
C          C       0.09368   0.16502   0.99325
C          C       0.03923   0.14618   0.97393
C          C       0.98540   0.23686   0.78161
C          C       0.99152   0.28251   0.79762
C          C       0.00484   0.30639   0.90013
C          C       0.01021   0.28188   0.98635
C          C       0.00251   0.23546   0.97084
N          N       0.46348   0.33455   0.52980
C          C       0.42166   0.30121   0.59401
C          C       0.39129   0.32418   0.62238
N          N       0.37639   0.33817   0.52295
C          C       0.41755   0.36917   0.95514
C          C       0.44568   0.34397   0.92827
C          C       0.33540   0.34708   0.52656
N          N       0.33958   0.37733   0.62431
C          C       0.38572   0.42484   0.62815
C          C       0.38836   0.46027   0.71854
N          N       0.34881   0.46984   0.71100
C          C       0.30426   0.42206   0.71838
C          C       0.29819   0.38476   0.62844
N          N       0.60993   0.46971   0.91346
C          C       0.61289   0.42821   0.87271
C          C       0.56511   0.37993   0.88999
N          N       0.55058   0.37396   0.50458
C          C       0.55289   0.41782   0.55019
C          C       0.60174   0.46436   0.53085
C          C       0.50591   0.32781   0.53036
C          C       0.49925   0.28121   0.97716
C          C       0.51708   0.25538   0.53016
C          C       0.51592   0.21563   0.97978
C          C       0.49955   0.20141   0.87150
C          C       0.48015   0.22610   0.81974
C          C       0.48080   0.26546   0.87060
C          C       0.50066   0.15997   0.81066
C          C       0.81344   0.81900   0.97930
N          N       0.82911   0.87151   0.99488
C          C       0.77524   0.78317   0.55745
C          C       0.80674   0.89262   0.92857
C          C       0.83985   0.94845   0.93036
N          N       0.84860   0.96981   0.54402
C          C       0.83553   0.93431   0.62968
C          C       0.85155   0.89801   0.60134
C          C       0.76608   0.73584   0.56655
C          C       0.72848   0.70172   0.62838
C          C       0.69753   0.71276   0.68405
C          C       0.70589   0.75967   0.67240
C          C       0.74346   0.79376   0.61065
N          N       0.68485   0.13502   0.80637
C          C       0.71685   0.11791   0.84076
C          C       0.69207   0.06346   0.81153
N          N       0.67785   0.05143   0.69557
C          C       0.65268   0.07515   0.65296
C          C       0.67957   0.12989   0.68657
C          C       0.65958   0.99914   0.66371
N          N       0.62770   0.96762   0.75017
C          C       0.58091   0.96398   0.76700
C          C       0.56384   0.94734   0.88333
N          N       0.55922   0.90090   0.91104
C          C       0.60475   0.90405   0.88150
C          C       0.61894   0.91846   0.76285
N          N       0.54680   0.16079   0.81765
C          C       0.59122   0.20754   0.79919
C          C       0.63357   0.19985   0.77550
N          N       0.64071   0.17468   0.86530
C          C       0.59621   0.12824   0.88327
C          C       0.55511   0.13724   0.90958
C          C       0.68632   0.17467   0.87503
C          C       0.73265   0.22446   0.88629
C          C       0.74006   0.25303   0.98114
C          C       0.78114   0.29895   0.99695
C          C       0.81650   0.31850   0.91799
C          C       0.80784   0.29116   0.82062
C          C       0.76661   0.24522   0.80469
C          C       0.86284   0.36794   0.93535
C          C       0.16928   0.03074   0.57664
N          N       0.12116   0.98621   0.54966
C          C       0.21190   0.02299   0.58551
C          C       0.10877   0.96821   0.93284
C          C       0.08417   0.91229   0.92205
N          N       0.04039   0.88849   0.98763
C          C       0.04786   0.90954   0.60137
C          C       0.10178   0.94682   0.62711
C          C       0.24947   0.04165   0.51119
C          C       0.28922   0.03620   0.52559
C          C       0.29239   0.01005   0.61180
C          C       0.25431   0.99089   0.68456
C          C       0.21542   0.99750   0.67209
N          N       0.88133   0.56965   0.87626
C          C       0.90801   0.62141   0.91035
C          C       0.95858   0.64825   0.85891
N          N       0.95516   0.64141   0.73939
C          C       0.92646   0.58968   0.70889
C          C       0.87601   0.56774   0.75738
C          C       0.00019   0.67182   0.67693
N          N       0.04031   0.67213   0.73909
C          C       0.04968   0.63229   0.72203
C          C       0.06164   0.61882   0.83282
N          N       0.10389   0.65996   0.88987
C          C       0.09469   0.70012   0.90082
C          C       0.08189   0.71526   0.79333
N          N       0.85793   0.41088   0.93619
C          C       0.82325   0.41043   0.85742
C          C       0.83425   0.46255   0.84196
N          N       0.83391   0.48656   0.94509
C          C       0.86716   0.48421   0.52316
C          C       0.85344   0.43146   0.53990
C          C       0.83844   0.53542   0.94066
C          C       0.79099   0.53402   0.92155
C          C       0.76960   0.54454   0.50818
C          C       0.72483   0.54055   0.99546
C          C       0.70007   0.52760   0.89448
C          C       0.72095   0.51604   0.80862
C          C       0.76519   0.51912   0.82184
C          C       0.64879   0.51783   0.87904
C          C       0.00216   0.83622   0.96515
N          N       0.95436   0.83334   0.96731
C          C       0.00479   0.79715   0.52941
C          C       0.93392   0.84119   0.86609
C          C       0.89391   0.85237   0.89229
N          N       0.85817   0.81758   0.96745
C          C       0.88139   0.81319   0.56976
C          C       0.93720   0.84435   0.56797
C          C       0.04772   0.79697   0.54709
C          C       0.04775   0.75850   0.59689
C          C       0.00505   0.71893   0.63541
C          C       0.96211   0.71856   0.61368
C          C       0.96189   0.75599   0.56122
N          N       0.55489   0.68272   0.96419
C          C       0.60724   0.71531   0.98406
C          C       0.63516   0.69585   0.91985
N          N       0.62311   0.68933   0.80199
C          C       0.57047   0.65922   0.78610
C          C       0.54561   0.68199   0.84731
C          C       0.64987   0.67269   0.73221
N          N       0.64866   0.63135   0.78793
C          C       0.61057   0.58043   0.76174
C          C       0.59613   0.55228   0.86823
N          N       0.63700   0.55325   0.92515
C          C       0.67549   0.60449   0.94400
C          C       0.69151   0.63490   0.84122
N          N       0.39935   0.54102   0.60714
C          C       0.42067   0.55016   0.99889
C          C       0.47333   0.59411   0.50124
N          N       0.47470   0.63830   0.54063
C          C       0.45473   0.62844   0.64980
C          C       0.40242   0.58546   0.64924
C          C       0.51994   0.68704   0.53498
C          C       0.51126   0.72784   0.50718
C          C       0.53780   0.77367   0.55997
C          C       0.53572   0.81286   0.52221
C          C       0.51038   0.80933   0.92551
C          C       0.48130   0.76282   0.87699
C          C       0.48150   0.72307   0.91778
C          C       0.51527   0.85467   0.87479
C          C       0.16019   0.15872   0.90302
N          N       0.16299   0.13386   0.80283
C          C       0.20541   0.20736   0.93705
C          C       0.20510   0.12811   0.80287
C          C       0.20818   0.10436   0.69521
N          N       0.16471   0.05633   0.67295
C          C       0.12244   0.06194   0.67234
C          C       0.11957   0.08553   0.78070
C          C       0.23048   0.24304   0.86103
C          C       0.27080   0.28798   0.89072
C          C       0.28723   0.30024   0.99960
C          C       0.26205   0.26470   0.57592
C          C       0.22113   0.21991   0.54629
N          N       0.34308   0.89895   0.83062
C          C       0.31344   0.91945   0.86255
C          C       0.33382   0.96998   0.81435
N          N       0.33227   0.96603   0.69464
C          C       0.36137   0.94501   0.66317
C          C       0.33970   0.89436   0.71118
C          C       0.33810   0.00780   0.63095
N          N       0.38193   0.05324   0.67383
C          C       0.43164   0.06615   0.64787
C          C       0.46003   0.07249   0.75467
N          N       0.46227   0.10970   0.83126
C          C       0.41275   0.09886   0.85109
C          C       0.38180   0.09050   0.74679
N          N       0.47268   0.86063   0.87657
C          C       0.43065   0.82507   0.80988
C          C       0.39601   0.84361   0.79188
N          N       0.37837   0.85093   0.89585
C          C       0.42034   0.88551   0.96545
C          C       0.45592   0.86742   0.98229
C          C       0.33498   0.85660   0.89440
C          C       0.28583   0.80956   0.87993
C          C       0.25459   0.79121   0.96774
C          C       0.21086   0.74703   0.95883
C          C       0.19561   0.71955   0.86085
C          C       0.22688   0.73784   0.77323
C          C       0.27060   0.78189   0.78221
C          C       0.15091   0.66843   0.85086
C          C       0.84384   0.01253   0.56812
N          N       0.87920   0.04041   0.65744
C          C       0.79286   0.00257   0.58651
C          C       0.93048   0.05865   0.63255
C          C       0.96447   0.09063   0.72821
N          N       0.96343   0.13599   0.74550
C          C       0.91569   0.12849   0.71025
C          C       0.87384   0.07636   0.72599
C          C       0.76578   0.00888   0.50593
C          C       0.72163   0.00450   0.52958
C          C       0.70207   0.99313   0.63357
C          C       0.72887   0.98553   0.71241
C          C       0.77165   0.98756   0.68784
N          N       0.14390   0.48809   0.52607
C          C       0.11856   0.45122   0.60729
C          C       0.06567   0.41581   0.56915
N          N       0.06230   0.39338   0.96072
C          C       0.09243   0.42964   0.88231
C          C       0.14450   0.46299   0.92571
C          C       0.01302   0.35717   0.91433
N          N       0.97686   0.36305   0.97413
C          C       0.97393   0.40499   0.94096
C          C       0.94414   0.41497   0.52241
N          N       0.89432   0.37367   0.53013
C          C       0.89759   0.33137   0.55809
C          C       0.92772   0.32037   0.97931
N          N       0.15685   0.62988   0.89752
C          C       0.20068   0.62978   0.86755
C          C       0.19740   0.58240   0.90219
N          N       0.19167   0.57609   0.52016
C          C       0.14918   0.57864   0.55107
C          C       0.15268   0.62577   0.51597
C          C       0.18973   0.53258   0.56558
C          C       0.23445   0.52795   0.57195
C          C       0.25642   0.53241   0.67411
C          C       0.29261   0.52179   0.68757
C          C       0.30827   0.50551   0.59979
C          C       0.28932   0.50495   0.99633
C          C       0.25319   0.51578   0.98287
C          C       0.34991   0.49648   0.61296
H          H       0.95902   0.13849   0.91513
H          H       0.06500   0.21254   0.74401
H          H       0.08980   0.23520   0.87714
H          H       0.14598   0.22050   0.78403
H          H       0.10023   0.16378   0.72682
H          H       0.11315   0.20340   0.52450
H          H       0.02621   0.15780   0.54449
H          H       0.01866   0.10589   0.97235
H          H       0.97680   0.22009   0.69876
H          H       0.98690   0.30076   0.72762
H          H       0.02191   0.30063   0.56718
H          H       0.00786   0.21729   0.53997
H          H       0.39838   0.26578   0.54944
H          H       0.43376   0.29320   0.67097
H          H       0.41311   0.35564   0.67974
H          H       0.35906   0.29770   0.66682
H          H       0.44277   0.40522   0.99496
H          H       0.40457   0.37597   0.87762
H          H       0.47534   0.36805   0.87534
H          H       0.42136   0.31001   0.87977
H          H       0.34036   0.36992   0.95559
H          H       0.41645   0.41968   0.64385
H          H       0.39251   0.44279   0.54879
H          H       0.42403   0.49453   0.71667
H          H       0.38713   0.44490   0.79924
H          H       0.27192   0.42552   0.71608
H          H       0.30468   0.40759   0.79931
H          H       0.29181   0.39651   0.54885
H          H       0.26468   0.34982   0.64443
H          H       0.61963   0.43083   0.78420
H          H       0.64329   0.42706   0.91295
H          H       0.57045   0.35003   0.86311
H          H       0.53746   0.37854   0.83341
H          H       0.54679   0.41419   0.63891
H          H       0.52438   0.42313   0.51405
H          H       0.63129   0.46329   0.57537
H          H       0.60009   0.49520   0.56713
H          H       0.51133   0.32491   0.61889
H          H       0.53283   0.26710   0.61364
H          H       0.52994   0.19612   0.52486
H          H       0.46546   0.21510   0.73531
H          H       0.46743   0.28534   0.82492
H          H       0.49747   0.16642   0.72306
H          H       0.79533   0.80765   0.89711
H          H       0.80155   0.87857   0.84325
H          H       0.77037   0.88257   0.95760
H          H       0.82367   0.96368   0.87733
H          H       0.87503   0.95789   0.89513
H          H       0.79597   0.91401   0.64372
H          H       0.85385   0.95357   0.70742
H          H       0.84183   0.87283   0.66883
H          H       0.89162   0.91820   0.59690
H          H       0.78915   0.72548   0.52237
H          H       0.72241   0.66483   0.63264
H          H       0.68155   0.76947   0.71257
H          H       0.74819   0.83000   0.60306
H          H       0.75273   0.13832   0.80241
H          H       0.72394   0.12269   0.92994
H          H       0.66047   0.04421   0.86483
H          H       0.71779   0.05185   0.83230
H          H       0.61510   0.05874   0.68122
H          H       0.64996   0.07114   0.56287
H          H       0.65851   0.14491   0.65331
H          H       0.71527   0.14922   0.64722
H          H       0.63718   0.99032   0.58787
H          H       0.58364   0.99927   0.76052
H          H       0.55288   0.93890   0.70553
H          H       0.52987   0.94694   0.89638
H          H       0.59106   0.97568   0.94117
H          H       0.60320   0.86954   0.89544
H          H       0.63425   0.93173   0.93630
H          H       0.58993   0.89172   0.70576
H          H       0.65066   0.91537   0.74628
H          H       0.58576   0.22504   0.72855
H          H       0.60134   0.23329   0.87039
H          H       0.66678   0.23561   0.76444
H          H       0.62499   0.17919   0.69660
H          H       0.60155   0.11012   0.95277
H          H       0.58542   0.10277   0.81132
H          H       0.56533   0.15971   0.98632
H          H       0.52238   0.10201   0.92685
H          H       0.68346   0.16013   0.95788
H          H       0.71267   0.23839   0.54503
H          H       0.78662   0.32038   0.57313
H          H       0.83448   0.30633   0.75533
H          H       0.76102   0.22439   0.72766
H          H       0.88324   0.37192   0.86012
H          H       0.17605   0.05412   0.50595
H          H       0.08348   0.97846   0.89897
H          H       0.14118   0.98524   0.88216
H          H       0.11065   0.90180   0.94608
H          H       0.07428   0.90079   0.83539
H          H       0.03447   0.88118   0.66268
H          H       0.02751   0.92837   0.61097
H          H       0.12204   0.92761   0.62728
H          H       0.10504   0.96217   0.71036
H          H       0.24806   0.06203   0.94165
H          H       0.31899   0.05266   0.96757
H          H       0.25424   0.96934   0.75284
H          H       0.18698   0.98312   0.73345
H          H       0.88768   0.63922   0.88724
H          H       0.91320   0.62600   0.99981
H          H       0.98052   0.63460   0.89615
H          H       0.97695   0.68746   0.88146
H          H       0.94340   0.56950   0.73875
H          H       0.92297   0.58449   0.61930
H          H       0.85249   0.53044   0.72508
H          H       0.85905   0.58819   0.72925
H          H       0.99547   0.65101   0.59950
H          H       0.01777   0.59970   0.68437
H          H       0.07977   0.64292   0.66527
H          H       0.06729   0.58795   0.82153
H          H       0.02976   0.60576   0.88526
H          H       0.12523   0.73234   0.94310
H          H       0.06341   0.68760   0.95513
H          H       0.11376   0.73187   0.74024
H          H       0.07320   0.74347   0.81329
H          H       0.82587   0.39570   0.77710
H          H       0.78523   0.38693   0.88313
H          H       0.80673   0.46020   0.78367
H          H       0.87013   0.48301   0.80347
H          H       0.86587   0.49960   0.60291
H          H       0.90536   0.50560   0.99695
H          H       0.81619   0.41032   0.57146
H          H       0.87797   0.43224   0.60452
H          H       0.84949   0.55021   0.52535
H          H       0.78834   0.55570   0.58887
H          H       0.70837   0.54796   0.56584
H          H       0.70152   0.50345   0.72880
H          H       0.77939   0.50855   0.75232
H          H       0.64333   0.51635   0.78909
H          H       0.00602   0.82811   0.87869
H          H       0.96213   0.87146   0.81949
H          H       0.91839   0.80798   0.81258
H          H       0.87527   0.85145   0.81534
H          H       0.91143   0.89032   0.92588
H          H       0.87051   0.77469   0.57786
H          H       0.86918   0.82325   0.64387
H          H       0.95195   0.83603   0.64014
H          H       0.94925   0.88344   0.57615
H          H       0.08215   0.82786   0.51948
H          H       0.08212   0.75926   0.60683
H          H       0.92715   0.68748   0.63877
H          H       0.92681   0.75310   0.54461
H          H       0.61975   0.75305   0.96060
H          H       0.61638   0.71722   0.57176
H          H       0.62613   0.66098   0.95602
H          H       0.67462   0.72115   0.93300
H          H       0.55594   0.62202   0.81600
H          H       0.56078   0.65510   0.69826
H          H       0.50635   0.66040   0.83039
H          H       0.55855   0.71891   0.81718
H          H       0.62663   0.65638   0.65723
H          H       0.57806   0.57798   0.72441
H          H       0.62315   0.56344   0.70149
H          H       0.56632   0.51431   0.85153
H          H       0.58146   0.56903   0.92355
H          H       0.70753   0.60802   0.98628
H          H       0.66084   0.62061   0.50108
H          H       0.70963   0.62192   0.78578
H          H       0.71865   0.67291   0.86605
H          H       0.42099   0.51782   0.96772
H          H       0.39902   0.55693   0.93868
H          H       0.48626   0.59745   0.91731
H          H       0.49680   0.58609   0.55239
H          H       0.45582   0.66077   0.68597
H          H       0.47601   0.61881   0.70349
H          H       0.37947   0.59504   0.60079
H          H       0.39009   0.58063   0.73428
H          H       0.53765   0.69679   0.61706
H          H       0.56101   0.77883   0.63204
H          H       0.55740   0.84876   0.56429
H          H       0.45950   0.75786   0.80249
H          H       0.45871   0.68691   0.87717
H          H       0.51915   0.84982   0.78596
H          H       0.15412   0.13422   0.97112
H          H       0.23906   0.16392   0.81361
H          H       0.20436   0.10585   0.87132
H          H       0.24067   0.10128   0.70214
H          H       0.21463   0.12921   0.62770
H          H       0.08847   0.02614   0.66188
H          H       0.12293   0.08401   0.60385
H          H       0.11373   0.06058   0.84763
H          H       0.08670   0.08802   0.77545
H          H       0.21814   0.23420   0.77498
H          H       0.29038   0.31458   0.82732
H          H       0.27569   0.27306   0.66117
H          H       0.20155   0.19300   0.60910
H          H       0.27494   0.89541   0.83487
H          H       0.31285   0.92315   0.95197
H          H       0.37137   0.99354   0.84739
H          H       0.31326   0.98629   0.84471
H          H       0.39969   0.96786   0.69257
H          H       0.36254   0.94180   0.57383
H          H       0.35902   0.87737   0.67807
H          H       0.30151   0.87134   0.68080
H          H       0.34740   0.00135   0.54807
H          H       0.43176   0.03798   0.59515
H          H       0.44998   0.10019   0.60223
H          H       0.49678   0.08063   0.73493
H          H       0.44267   0.03742   0.79604
H          H       0.41352   0.12760   0.90372
H          H       0.39460   0.06553   0.89894
H          H       0.39649   0.12502   0.70359
H          H       0.34480   0.07978   0.77065
H          H       0.44218   0.81951   0.72902
H          H       0.41071   0.78904   0.84771
H          H       0.36585   0.81679   0.73797
H          H       0.41624   0.87801   0.74778
H          H       0.40838   0.89025   0.54622
H          H       0.44007   0.92207   0.92985
H          H       0.43765   0.83319   0.52756
H          H       0.48691   0.89444   0.53466
H          H       0.33518   0.86894   0.97956
H          H       0.26508   0.81188   0.54638
H          H       0.18747   0.73308   0.53005
H          H       0.21694   0.71661   0.69534
H          H       0.29392   0.79456   0.71093
H          H       0.14629   0.65961   0.76179
H          H       0.85661   0.03485   0.99461
H          H       0.93552   0.02756   0.61760
H          H       0.94137   0.07997   0.55756
H          H       0.00195   0.10010   0.71151
H          H       0.95346   0.06845   0.80200
H          H       0.91670   0.13659   0.62271
H          H       0.90721   0.15314   0.75511
H          H       0.84001   0.07569   0.70769
H          H       0.87320   0.06778   0.81304
H          H       0.78104   0.02004   0.92448
H          H       0.70136   0.01091   0.96629
H          H       0.71576   0.97790   0.79634
H          H       0.79180   0.98150   0.75218
H          H       0.13715   0.43112   0.62470
H          H       0.11773   0.46886   0.68492
H          H       0.04759   0.43707   0.57150
H          H       0.04745   0.38703   0.62909
H          H       0.07749   0.45256   0.85942
H          H       0.09329   0.41046   0.80717
H          H       0.16494   0.48853   0.86146
H          H       0.16140   0.44095   0.93881
H          H       0.01137   0.36740   0.82934
H          H       0.01032   0.43814   0.93839
H          H       0.95811   0.39936   0.85714
H          H       0.94453   0.44819   0.99988
H          H       0.96222   0.42295   0.60420
H          H       0.86116   0.29859   0.56495
H          H       0.91504   0.33896   0.64060
H          H       0.90934   0.30881   0.89760
H          H       0.92883   0.28910   0.51097
H          H       0.20488   0.63216   0.77814
H          H       0.23402   0.66146   0.90507
H          H       0.23072   0.58349   0.87759
H          H       0.16640   0.55220   0.85498
H          H       0.14533   0.57656   0.64062
H          H       0.11508   0.54754   0.51448
H          H       0.18387   0.65718   0.55995
H          H       0.11956   0.62455   0.54303
H          H       0.18310   0.53693   0.65253
H          H       0.24458   0.54452   0.74547
H          H       0.30932   0.52565   0.76890
H          H       0.30248   0.49410   0.92494
H          H       0.23830   0.51343   0.90048
H          H       0.34610   0.47313   0.54087
H          H       0.09706   0.14367   0.55814
