data_crystal

_cell_length_a    39.15000
_cell_length_b    26.21000
_cell_length_c    12.46600
_cell_angle_alpha 114.20000
_cell_angle_beta  96.30000
_cell_angle_gamma 84.90000

_space_group_name_Hall 'P 1'
_space_group_name_H-M_alt 'P 1'

loop_
_symmetry_equiv_pos_as_xyz
 'x,y,z'

loop_
_atom_site_label
_atom_site_type_symbol
_atom_site_fract_x
_atom_site_fract_y
_atom_site_fract_z
N          N       0.31892   0.24971   0.33267
C          C       0.30749   0.19401   0.25235
C          C       0.27088   0.18447   0.27345
N          N       0.26819   0.19145   0.39519
C          C       0.28192   0.24525   0.47741
C          C       0.31848   0.25308   0.45257
C          C       0.41011   0.28562   0.40248
N          N       0.38181   0.24777   0.34951
C          C       0.39643   0.19468   0.26632
C          C       0.34981   0.27040   0.30211
C          C       0.97899   0.99357   0.32132
C          C       0.95338   0.03502   0.38097
C          C       0.95523   0.09026   0.39999
C          C       0.98176   0.10928   0.36125
C          C       0.46894   0.11311   0.01330
C          C       0.46642   0.06040   0.00967
H          H       0.30725   0.18854   0.15979
H          H       0.32510   0.16050   0.26218
H          H       0.26431   0.14171   0.21232
H          H       0.25279   0.21318   0.24800
H          H       0.28296   0.24823   0.06853
H          H       0.26516   0.28104   0.47476
H          H       0.33661   0.22136   0.46793
H          H       0.32670   0.29408   0.01782
H          H       0.89265   0.22398   0.43683
H          H       0.40080   0.32551   0.47024
H          H       0.88839   0.15637   0.10569
H          H       0.37630   0.16416   0.22562
H          H       0.34870   0.24865   0.20491
H          H       0.93260   0.02327   0.41780
H          H       0.93528   0.12084   0.44817
H          H       0.45994   0.14956   0.08966
H          H       0.45587   0.05751   0.08495
N          N       0.95485   0.19579   0.32206
C          C       0.43973   0.26056   0.46227
C          C       0.42498   0.16840   0.32611
N          N       0.07250   0.26731   0.41015
C          C       0.06229   0.22033   0.29902
C          C       0.02395   0.20719   0.29051
N          N       0.01609   0.19558   0.39059
C          C       0.02547   0.24383   0.49898
C          C       0.06365   0.25595   0.00892
C          C       0.98176   0.17221   0.38650
H          H       0.42702   0.25496   0.06896
H          H       0.94765   0.26887   0.48440
H          H       0.41336   0.15732   0.39030
H          H       0.91671   0.13406   0.27030
H          H       0.06646   0.23019   0.22378
H          H       0.07795   0.18152   0.28759
H          H       0.01839   0.17068   0.20719
H          H       0.00772   0.24280   0.28438
H          H       0.02096   0.23592   0.07644
H          H       0.00959   0.28183   0.00466
H          H       0.97547   0.19099   0.47964
H          H       0.07945   0.22027   0.01667
H          H       0.06887   0.29263   0.09198
C          C       0.23500   0.17585   0.42448
C          C       0.23223   0.00982   0.43978
C          C       0.24891   0.01709   0.35125
C          C       0.25012   0.06867   0.34657
C          C       0.23582   0.11768   0.42996
C          C       0.21862   0.11108   0.01590
C          C       0.21701   0.06005   0.02201
H          H       0.23270   0.20452   0.01801
H          H       0.26156   0.98107   0.28329
H          H       0.26342   0.07187   0.27641
H          H       0.20631   0.14827   0.08259
H          H       0.20326   0.05967   0.09391
C          C       0.10738   0.29188   0.42719
H          H       0.11572   0.30265   0.02142
N          N       0.20493   0.19097   0.35662
C          C       0.19767   0.25134   0.38515
C          C       0.16374   0.26208   0.31948
N          N       0.13287   0.24753   0.36019
C          C       0.14295   0.20363   0.40496
C          C       0.17168   0.16303   0.33577
H          H       0.19603   0.27588   0.48090
H          H       0.21856   0.26841   0.35967
H          H       0.16499   0.23606   0.22430
H          H       0.16223   0.30572   0.32904
H          H       0.12073   0.17906   0.39683
H          H       0.15197   0.22168   0.49970
H          H       0.16319   0.14720   0.24083
H          H       0.17424   0.12644   0.35814
C          C       0.35059   0.44804   0.35269
C          C       0.33531   0.43189   0.43266
C          C       0.33469   0.37666   0.41656
C          C       0.34807   0.33274   0.31961
C          C       0.83189   0.35980   0.33122
C          C       0.83466   0.41531   0.35344
C          C       0.08629   0.41612   0.33484
C          C       0.10939   0.45748   0.41120
C          C       0.13168   0.44102   0.49116
C          C       0.13035   0.38941   0.49479
C          C       0.10680   0.34996   0.42175
C          C       0.08537   0.36480   0.34081
H          H       0.32361   0.46469   0.00881
H          H       0.32253   0.36665   0.48049
H          H       0.81190   0.34822   0.37146
H          H       0.81669   0.44633   0.41159
H          H       0.06797   0.42543   0.27094
H          H       0.15074   0.46981   0.05206
H          H       0.14816   0.37899   0.05849
H          H       0.06653   0.33469   0.28282
N          N       0.81744   0.22746   0.23396
C          C       0.80366   0.17417   0.15038
C          C       0.76602   0.16984   0.17057
N          N       0.76261   0.17566   0.29104
C          C       0.77783   0.22755   0.37565
C          C       0.81538   0.23077   0.35313
C          C       0.89760   0.23841   0.36550
N          N       0.88045   0.21372   0.24347
C          C       0.90353   0.17644   0.15468
C          C       0.85008   0.24380   0.20565
C          C       0.47791   0.01125   0.41468
C          C       0.49153   0.02101   0.32359
C          C       0.49395   0.07433   0.32942
C          C       0.48349   0.12202   0.42521
C          C       0.00610   0.05782   0.27492
C          C       0.00526   0.00220   0.25609
H          H       0.80421   0.17015   0.05904
H          H       0.81941   0.13817   0.15697
H          H       0.75697   0.12904   0.10652
H          H       0.75006   0.20210   0.14970
H          H       0.77758   0.23015   0.46610
H          H       0.76293   0.26494   0.37292
H          H       0.83119   0.19667   0.36782
H          H       0.82527   0.27041   0.41967
H          H       0.42072   0.29622   0.33583
H          H       0.88689   0.28082   0.41592
H          H       0.40701   0.20002   0.19304
H          H       0.91678   0.19943   0.11562
H          H       0.84852   0.22441   0.10817
H          H       0.50078   0.98567   0.24598
H          H       0.50510   0.08025   0.25818
H          H       0.02700   0.07169   0.24251
H          H       0.02577   0.97257   0.20909
N          N       0.45358   0.20534   0.38139
C          C       0.93714   0.24101   0.36771
C          C       0.93062   0.14564   0.20917
N          N       0.57620   0.25650   0.39135
C          C       0.55103   0.23325   0.28997
C          C       0.51537   0.22924   0.32830
N          N       0.51722   0.19449   0.39588
C          C       0.54298   0.21721   0.49556
C          C       0.57842   0.22170   0.45874
C          C       0.48467   0.18203   0.43245
H          H       0.94544   0.28155   0.31490
H          H       0.46055   0.29019   0.49460
H          H       0.94532   0.11398   0.13902
H          H       0.43438   0.12880   0.25789
H          H       0.54752   0.26027   0.24119
H          H       0.55981   0.19127   0.22769
H          H       0.49776   0.21139   0.24824
H          H       0.50515   0.27225   0.37933
H          H       0.54642   0.18967   0.04351
H          H       0.53425   0.25915   0.05841
H          H       0.48547   0.20711   0.02869
H          H       0.58875   0.17877   0.40848
H          H       0.59574   0.23966   0.03957
C          C       0.72875   0.16198   0.31826
C          C       0.72366   0.99519   0.32037
C          C       0.74214   0.00350   0.23652
C          C       0.74376   0.05577   0.23639
C          C       0.72814   0.10353   0.31918
C          C       0.70885   0.09583   0.39915
C          C       0.70640   0.04413   0.40092
H          H       0.72643   0.18980   0.41222
H          H       0.75577   0.96753   0.17141
H          H       0.75849   0.06052   0.17108
H          H       0.69589   0.13263   0.46453
H          H       0.69230   0.04096   0.46943
C          C       0.60925   0.27755   0.37554
H          H       0.62559   0.28094   0.45632
N          N       0.69984   0.17946   0.25037
C          C       0.69203   0.24059   0.29197
C          C       0.65690   0.25349   0.23690
N          N       0.62749   0.23507   0.27589
C          C       0.63731   0.18056   0.28467
C          C       0.66745   0.14871   0.20993
H          H       0.69171   0.26106   0.38896
H          H       0.71205   0.26007   0.26796
H          H       0.65672   0.23193   0.13992
H          H       0.65446   0.29844   0.25640
H          H       0.61510   0.15373   0.25369
H          H       0.64497   0.18612   0.37660
H          H       0.66012   0.14224   0.11734
H          H       0.67090   0.10668   0.21006
C          C       0.85894   0.42151   0.27648
C          C       0.88137   0.37799   0.20435
C          C       0.87826   0.32286   0.18450
C          C       0.85315   0.30623   0.23360
C          C       0.36327   0.34784   0.24076
C          C       0.36419   0.40253   0.25381
C          C       0.59036   0.40688   0.30077
C          C       0.60880   0.44970   0.39591
C          C       0.62526   0.43369   0.48671
C          C       0.62418   0.38002   0.47951
C          C       0.60722   0.33806   0.38350
C          C       0.59024   0.35333   0.29559
H          H       0.90064   0.38765   0.15843
H          H       0.89581   0.29051   0.12725
H          H       0.37435   0.31445   0.16392
H          H       0.37667   0.41155   0.18897
H          H       0.57718   0.41634   0.22786
H          H       0.63919   0.46496   0.06377
H          H       0.63739   0.36978   0.05137
H          H       0.57694   0.32112   0.21873
N          N       0.33537   0.71863   0.43910
C          C       0.31163   0.71865   0.33622
C          C       0.27353   0.71372   0.35125
N          N       0.26148   0.75857   0.46333
C          C       0.28979   0.78390   0.05250
C          C       0.31859   0.73963   0.05020
C          C       0.39255   0.74748   0.36368
N          N       0.39069   0.68935   0.35357
C          C       0.42622   0.66322   0.35297
C          C       0.36708   0.68070   0.42926
C          C       0.85922   0.48986   0.31061
C          C       0.82925   0.52655   0.33617
C          C       0.82794   0.57809   0.33063
C          C       0.85634   0.59907   0.30591
C          C       0.35001   0.57996   0.29906
C          C       0.34605   0.52507   0.27994
H          H       0.31364   0.75826   0.32650
H          H       0.31896   0.68470   0.25336
H          H       0.27110   0.67224   0.35200
H          H       0.25758   0.71431   0.27337
H          H       0.28015   0.80245   0.14076
H          H       0.30073   0.81804   0.03880
H          H       0.30748   0.70541   0.06310
H          H       0.33774   0.75859   0.12520
H          H       0.92949   0.66090   0.40247
H          H       0.39422   0.77801   0.45669
H          H       0.89735   0.66458   0.13691
H          H       0.42770   0.63152   0.39017
H          H       0.37984   0.69908   0.01982
H          H       0.80562   0.51260   0.35374
H          H       0.80373   0.60357   0.34783
H          H       0.34416   0.59354   0.22616
H          H       0.33715   0.49521   0.19169
N          N       0.94446   0.75868   0.36917
C          C       0.42348   0.75381   0.30416
C          C       0.45344   0.70670   0.42202
N          N       0.08030   0.71313   0.41131
C          C       0.05979   0.70585   0.29706
C          C       0.02061   0.70537   0.30372
N          N       0.00798   0.75461   0.40505
C          C       0.03023   0.76875   0.01657
C          C       0.05855   0.72274   0.00697
C          C       0.97635   0.79188   0.40244
H          H       0.41923   0.80957   0.29056
H          H       0.94639   0.75454   0.03991
H          H       0.44630   0.72886   0.01391
H          H       0.95367   0.67375   0.25001
H          H       0.06402   0.74119   0.27455
H          H       0.06806   0.66767   0.22307
H          H       0.01467   0.66643   0.31058
H          H       0.00765   0.70411   0.21986
H          H       0.01480   0.77467   0.09003
H          H       0.04259   0.80860   0.04000
H          H       0.97411   0.81888   0.49704
H          H       0.04660   0.68392   0.49539
H          H       0.07450   0.73615   0.09147
C          C       0.22812   0.79207   0.47146
C          C       0.10995   0.51268   0.41028
C          C       0.12318   0.55921   0.01022
C          C       0.12394   0.61147   0.00934
C          C       0.11209   0.62251   0.41058
C          C       0.09874   0.57758   0.31208
C          C       0.09752   0.52481   0.31076
H          H       0.22342   0.80528   0.06552
H          H       0.13289   0.55426   0.09180
H          H       0.13430   0.64569   0.08957
H          H       0.08900   0.58495   0.23316
H          H       0.08711   0.49130   0.22935
C          C       0.11394   0.68186   0.41407
H          H       0.12552   0.70666   0.00407
N          N       0.20017   0.75424   0.40250
C          C       0.16559   0.78118   0.41175
C          C       0.13869   0.74195   0.32403
N          N       0.13644   0.68764   0.33186
C          C       0.17193   0.66397   0.33261
C          C       0.19765   0.70401   0.42505
H          H       0.15751   0.79598   0.00245
H          H       0.16494   0.81832   0.39097
H          H       0.14548   0.73291   0.23406
H          H       0.11383   0.76570   0.33449
H          H       0.18111   0.65285   0.24467
H          H       0.17281   0.62467   0.34523
H          H       0.22259   0.68059   0.41961
H          H       0.18993   0.71475   0.01491
C          C       0.47674   0.95448   0.40783
C          C       0.49534   0.90651   0.33095
C          C       0.49640   0.85548   0.33937
C          C       0.47955   0.84775   0.42427
C          C       0.94775   0.86377   0.32712
C          C       0.94794   0.91043   0.30262
C          C       0.21609   0.94867   0.03411
C          C       0.23071   0.95435   0.44005
C          C       0.24372   0.90301   0.35422
C          C       0.24271   0.85249   0.36377
C          C       0.22937   0.84819   0.45888
C          C       0.21542   0.89782   0.04197
H          H       0.51050   0.91005   0.26538
H          H       0.51151   0.81973   0.27958
H          H       0.92295   0.84725   0.32820
H          H       0.92313   0.93093   0.28834
H          H       0.20510   0.98543   0.10509
H          H       0.25526   0.90260   0.27737
H          H       0.25306   0.81384   0.29569
H          H       0.20383   0.89635   0.11720
N          N       0.82446   0.68459   0.30105
C          C       0.79184   0.67306   0.22740
C          C       0.76780   0.72608   0.25837
N          N       0.76072   0.74987   0.38288
C          C       0.79339   0.76047   0.45653
C          C       0.81773   0.70777   0.42555
C          C       0.90944   0.68428   0.39712
N          N       0.88573   0.67590   0.29164
C          C       0.90011   0.68857   0.19999
C          C       0.85396   0.64240   0.26065
C          C       0.35318   0.50560   0.37239
C          C       0.36410   0.54747   0.48528
C          C       0.36808   0.60194   0.00128
C          C       0.36182   0.61967   0.40873
C          C       0.88574   0.55210   0.25650
C          C       0.88770   0.50022   0.26080
H          H       0.79665   0.65807   0.13364
H          H       0.77815   0.63996   0.23583
H          H       0.74370   0.71498   0.20143
H          H       0.77994   0.75583   0.23396
H          H       0.78840   0.77515   0.05013
H          H       0.80709   0.79383   0.44899
H          H       0.80632   0.67726   0.44973
H          H       0.84188   0.71974   0.48191
H          H       0.36885   0.75893   0.32062
H          H       0.89551   0.68381   0.46853
H          H       0.43303   0.64113   0.26093
H          H       0.88571   0.72514   0.19157
H          H       0.85012   0.62654   0.16331
H          H       0.37064   0.53528   0.05993
H          H       0.37699   0.63232   0.08957
H          H       0.90823   0.56623   0.23226
H          H       0.91180   0.47457   0.23950
N          N       0.45684   0.74656   0.36733
C          C       0.92734   0.74065   0.44194
C          C       0.93864   0.70105   0.22985
N          N       0.58445   0.71731   0.46081
C          C       0.57023   0.71800   0.34666
C          C       0.53028   0.72107   0.33631
N          N       0.51569   0.76495   0.44429
C          C       0.54206   0.79906   0.02962
C          C       0.56943   0.76179   0.06527
C          C       0.48080   0.79185   0.43884
H          H       0.90062   0.78959   0.48609
H          H       0.42279   0.72011   0.21448
H          H       0.94746   0.71166   0.16099
H          H       0.47836   0.68426   0.42671
H          H       0.57936   0.75420   0.33583
H          H       0.57923   0.68042   0.27263
H          H       0.52136   0.67995   0.32268
H          H       0.52099   0.72747   0.25587
H          H       0.53038   0.82862   0.10974
H          H       0.55441   0.82475   0.49454
H          H       0.47389   0.80589   0.03098
H          H       0.55723   0.74233   0.11406
H          H       0.58936   0.78839   0.12710
C          C       0.73316   0.79642   0.42267
C          C       0.61122   0.50487   0.40046
C          C       0.64273   0.53335   0.43820
C          C       0.64395   0.58865   0.45646
C          C       0.61480   0.61998   0.43762
C          C       0.58379   0.59272   0.40028
C          C       0.58187   0.53694   0.37784
H          H       0.74130   0.82129   0.01653
H          H       0.66625   0.51120   0.45728
H          H       0.66850   0.60954   0.48805
H          H       0.56034   0.61681   0.38783
H          H       0.55672   0.51784   0.35059
C          C       0.61645   0.68417   0.48034
H          H       0.61827   0.69685   0.07720
N          N       0.69993   0.77239   0.42789
C          C       0.69426   0.77528   0.04433
C          C       0.65718   0.76225   0.05090
N          N       0.64857   0.70650   0.46378
C          C       0.65383   0.70325   0.34659
C          C       0.69101   0.71683   0.33934
H          H       0.71237   0.74611   0.06863
H          H       0.69897   0.81771   0.11189
H          H       0.63937   0.79509   0.03882
H          H       0.65491   0.76533   0.14075
H          H       0.63592   0.73257   0.32225
H          H       0.64886   0.66085   0.27938
H          H       0.69276   0.71491   0.25018
H          H       0.70904   0.68364   0.34887
C          C       0.97893   0.92465   0.28391
C          C       0.00982   0.89492   0.30339
C          C       0.00885   0.84847   0.32865
C          C       0.97789   0.82524   0.32767
C          C       0.45989   0.89372   0.49689
C          C       0.45818   0.94483   0.48927
C          C       0.69605   0.92207   0.35632
C          C       0.72474   0.94109   0.32384
C          C       0.75604   0.90753   0.31623
C          C       0.75839   0.86195   0.34539
C          C       0.72987   0.84286   0.37430
C          C       0.69906   0.87534   0.38165
H          H       0.03481   0.91288   0.31169
H          H       0.03309   0.82875   0.35037
H          H       0.44546   0.88897   0.06303
H          H       0.44240   0.97874   0.05078
H          H       0.67133   0.94637   0.36564
H          H       0.77944   0.92099   0.29586
H          H       0.78361   0.83987   0.34508
H          H       0.67646   0.86273   0.40860
N          N       0.31892   0.24971   0.83268
C          C       0.30749   0.19401   0.75235
C          C       0.27088   0.18447   0.77345
N          N       0.26819   0.19145   0.89519
C          C       0.28192   0.24525   0.97742
C          C       0.31848   0.25308   0.95257
C          C       0.41011   0.28562   0.90248
N          N       0.38181   0.24777   0.84950
C          C       0.39643   0.19468   0.76632
C          C       0.34981   0.27040   0.80211
C          C       0.97899   0.99357   0.82132
C          C       0.95338   0.03502   0.88096
C          C       0.95523   0.09026   0.89999
C          C       0.98176   0.10928   0.86125
C          C       0.46894   0.11311   0.51330
C          C       0.46642   0.06040   0.50967
H          H       0.30725   0.18854   0.65978
H          H       0.32510   0.16050   0.76218
H          H       0.26431   0.14171   0.71232
H          H       0.25279   0.21318   0.74800
H          H       0.28296   0.24823   0.56852
H          H       0.26516   0.28104   0.97476
H          H       0.33661   0.22136   0.96793
H          H       0.32670   0.29408   0.51782
H          H       0.89265   0.22398   0.93683
H          H       0.40080   0.32551   0.97024
H          H       0.88839   0.15637   0.60569
H          H       0.37630   0.16416   0.72562
H          H       0.34870   0.24865   0.70491
H          H       0.93260   0.02327   0.91780
H          H       0.93528   0.12084   0.94817
H          H       0.45994   0.14956   0.58966
H          H       0.45587   0.05751   0.58494
N          N       0.95485   0.19579   0.82206
C          C       0.43973   0.26056   0.96227
C          C       0.42498   0.16840   0.82611
N          N       0.07250   0.26731   0.91015
C          C       0.06229   0.22033   0.79901
C          C       0.02395   0.20719   0.79051
N          N       0.01609   0.19558   0.89059
C          C       0.02547   0.24383   0.99898
C          C       0.06365   0.25595   0.50892
C          C       0.98176   0.17221   0.88650
H          H       0.42702   0.25496   0.56896
H          H       0.94765   0.26887   0.98440
H          H       0.41336   0.15732   0.89030
H          H       0.91671   0.13406   0.77030
H          H       0.06646   0.23019   0.72377
H          H       0.07795   0.18152   0.78760
H          H       0.01839   0.17068   0.70719
H          H       0.00772   0.24280   0.78438
H          H       0.02096   0.23592   0.57644
H          H       0.00959   0.28183   0.50467
H          H       0.97547   0.19099   0.97964
H          H       0.07945   0.22027   0.51667
H          H       0.06887   0.29263   0.59197
C          C       0.23500   0.17585   0.92448
C          C       0.23223   0.00982   0.93978
C          C       0.24891   0.01709   0.85125
C          C       0.25012   0.06867   0.84657
C          C       0.23582   0.11768   0.92996
C          C       0.21862   0.11108   0.51591
C          C       0.21701   0.06005   0.52202
H          H       0.23270   0.20452   0.51801
H          H       0.26156   0.98107   0.78329
H          H       0.26342   0.07187   0.77640
H          H       0.20631   0.14827   0.58259
H          H       0.20326   0.05967   0.59391
C          C       0.10738   0.29188   0.92719
H          H       0.11572   0.30265   0.52142
N          N       0.20493   0.19097   0.85662
C          C       0.19767   0.25134   0.88515
C          C       0.16374   0.26208   0.81948
N          N       0.13287   0.24753   0.86019
C          C       0.14295   0.20363   0.90496
C          C       0.17168   0.16303   0.83577
H          H       0.19603   0.27588   0.98089
H          H       0.21856   0.26841   0.85967
H          H       0.16499   0.23606   0.72430
H          H       0.16223   0.30572   0.82904
H          H       0.12073   0.17906   0.89683
H          H       0.15197   0.22168   0.99970
H          H       0.16319   0.14720   0.74082
H          H       0.17424   0.12644   0.85814
C          C       0.35059   0.44804   0.85269
C          C       0.33531   0.43189   0.93266
C          C       0.33469   0.37666   0.91656
C          C       0.34807   0.33274   0.81961
C          C       0.83189   0.35980   0.83122
C          C       0.83466   0.41531   0.85344
C          C       0.08629   0.41612   0.83484
C          C       0.10939   0.45748   0.91119
C          C       0.13168   0.44102   0.99116
C          C       0.13035   0.38941   0.99479
C          C       0.10680   0.34996   0.92175
C          C       0.08537   0.36480   0.84081
H          H       0.32361   0.46469   0.50881
H          H       0.32253   0.36665   0.98049
H          H       0.81190   0.34822   0.87146
H          H       0.81669   0.44633   0.91159
H          H       0.06797   0.42543   0.77094
H          H       0.15074   0.46981   0.55206
H          H       0.14816   0.37899   0.55849
H          H       0.06653   0.33469   0.78282
N          N       0.81744   0.22746   0.73396
C          C       0.80366   0.17417   0.65038
C          C       0.76602   0.16984   0.67057
N          N       0.76261   0.17566   0.79104
C          C       0.77783   0.22755   0.87565
C          C       0.81538   0.23077   0.85313
C          C       0.89760   0.23841   0.86550
N          N       0.88045   0.21372   0.74347
C          C       0.90353   0.17644   0.65468
C          C       0.85008   0.24380   0.70565
C          C       0.47791   0.01125   0.91468
C          C       0.49153   0.02101   0.82359
C          C       0.49395   0.07433   0.82942
C          C       0.48349   0.12202   0.92521
C          C       0.00610   0.05782   0.77493
C          C       0.00526   0.00220   0.75609
H          H       0.80421   0.17015   0.55904
H          H       0.81941   0.13817   0.65697
H          H       0.75697   0.12904   0.60652
H          H       0.75006   0.20210   0.64970
H          H       0.77758   0.23015   0.96610
H          H       0.76293   0.26494   0.87291
H          H       0.83119   0.19667   0.86782
H          H       0.82527   0.27041   0.91966
H          H       0.42072   0.29622   0.83583
H          H       0.88689   0.28082   0.91592
H          H       0.40701   0.20002   0.69303
H          H       0.91678   0.19943   0.61562
H          H       0.84852   0.22441   0.60817
H          H       0.50078   0.98567   0.74598
H          H       0.50510   0.08025   0.75818
H          H       0.02700   0.07169   0.74251
H          H       0.02577   0.97257   0.70908
N          N       0.45358   0.20534   0.88139
C          C       0.93714   0.24101   0.86771
C          C       0.93062   0.14564   0.70917
N          N       0.57620   0.25650   0.89135
C          C       0.55103   0.23325   0.78997
C          C       0.51537   0.22924   0.82830
N          N       0.51722   0.19449   0.89588
C          C       0.54298   0.21721   0.99556
C          C       0.57842   0.22170   0.95874
C          C       0.48467   0.18203   0.93245
H          H       0.94544   0.28155   0.81490
H          H       0.46055   0.29019   0.99460
H          H       0.94532   0.11398   0.63902
H          H       0.43438   0.12880   0.75789
H          H       0.54752   0.26027   0.74119
H          H       0.55981   0.19127   0.72769
H          H       0.49776   0.21139   0.74824
H          H       0.50515   0.27225   0.87933
H          H       0.54642   0.18967   0.54351
H          H       0.53425   0.25915   0.55841
H          H       0.48547   0.20711   0.52870
H          H       0.58875   0.17877   0.90848
H          H       0.59574   0.23966   0.53957
C          C       0.72875   0.16198   0.81826
C          C       0.72366   0.99519   0.82037
C          C       0.74214   0.00350   0.73653
C          C       0.74376   0.05577   0.73639
C          C       0.72814   0.10353   0.81918
C          C       0.70885   0.09583   0.89914
C          C       0.70640   0.04413   0.90092
H          H       0.72643   0.18980   0.91222
H          H       0.75577   0.96753   0.67141
H          H       0.75849   0.06052   0.67109
H          H       0.69589   0.13263   0.96452
H          H       0.69230   0.04096   0.96943
C          C       0.60925   0.27755   0.87555
H          H       0.62559   0.28094   0.95632
N          N       0.69984   0.17946   0.75037
C          C       0.69203   0.24059   0.79197
C          C       0.65690   0.25349   0.73690
N          N       0.62749   0.23507   0.77589
C          C       0.63731   0.18056   0.78467
C          C       0.66745   0.14871   0.70993
H          H       0.69171   0.26106   0.88896
H          H       0.71205   0.26007   0.76796
H          H       0.65672   0.23193   0.63992
H          H       0.65446   0.29844   0.75640
H          H       0.61510   0.15373   0.75369
H          H       0.64497   0.18612   0.87660
H          H       0.66012   0.14224   0.61734
H          H       0.67090   0.10668   0.71006
C          C       0.85894   0.42151   0.77648
C          C       0.88137   0.37799   0.70435
C          C       0.87826   0.32286   0.68449
C          C       0.85315   0.30623   0.73360
C          C       0.36327   0.34784   0.74076
C          C       0.36419   0.40253   0.75381
C          C       0.59036   0.40688   0.80077
C          C       0.60880   0.44970   0.89590
C          C       0.62526   0.43369   0.98671
C          C       0.62418   0.38002   0.97951
C          C       0.60722   0.33806   0.88350
C          C       0.59024   0.35333   0.79560
H          H       0.90064   0.38765   0.65843
H          H       0.89581   0.29051   0.62726
H          H       0.37435   0.31445   0.66392
H          H       0.37667   0.41155   0.68897
H          H       0.57718   0.41634   0.72786
H          H       0.63919   0.46496   0.56377
H          H       0.63739   0.36978   0.55138
H          H       0.57694   0.32112   0.71874
N          N       0.33537   0.71863   0.93910
C          C       0.31163   0.71865   0.83622
C          C       0.27353   0.71372   0.85125
N          N       0.26148   0.75857   0.96333
C          C       0.28979   0.78390   0.55251
C          C       0.31859   0.73963   0.55020
C          C       0.39255   0.74748   0.86368
N          N       0.39069   0.68935   0.85357
C          C       0.42622   0.66322   0.85297
C          C       0.36708   0.68070   0.92926
C          C       0.85922   0.48986   0.81061
C          C       0.82925   0.52655   0.83617
C          C       0.82794   0.57809   0.83062
C          C       0.85634   0.59907   0.80591
C          C       0.35001   0.57996   0.79906
C          C       0.34605   0.52507   0.77995
H          H       0.31364   0.75826   0.82650
H          H       0.31896   0.68470   0.75336
H          H       0.27110   0.67224   0.85199
H          H       0.25758   0.71431   0.77337
H          H       0.28015   0.80245   0.64076
H          H       0.30073   0.81804   0.53880
H          H       0.30748   0.70541   0.56310
H          H       0.33774   0.75859   0.62519
H          H       0.92949   0.66090   0.90247
H          H       0.39422   0.77801   0.95669
H          H       0.89735   0.66458   0.63692
H          H       0.42770   0.63152   0.89016
H          H       0.37984   0.69908   0.51982
H          H       0.80562   0.51260   0.85374
H          H       0.80373   0.60357   0.84783
H          H       0.34416   0.59354   0.72617
H          H       0.33715   0.49521   0.69169
N          N       0.94446   0.75868   0.86917
C          C       0.42348   0.75381   0.80416
C          C       0.45344   0.70670   0.92202
N          N       0.08030   0.71313   0.91131
C          C       0.05979   0.70585   0.79706
C          C       0.02061   0.70537   0.80372
N          N       0.00798   0.75461   0.90505
C          C       0.03023   0.76875   0.51658
C          C       0.05855   0.72274   0.50697
C          C       0.97635   0.79188   0.90244
H          H       0.41923   0.80957   0.79056
H          H       0.94639   0.75454   0.53990
H          H       0.44630   0.72886   0.51391
H          H       0.95367   0.67375   0.75000
H          H       0.06402   0.74119   0.77456
H          H       0.06806   0.66767   0.72307
H          H       0.01467   0.66643   0.81058
H          H       0.00765   0.70411   0.71986
H          H       0.01480   0.77467   0.59003
H          H       0.04259   0.80860   0.54001
H          H       0.97411   0.81888   0.99703
H          H       0.04660   0.68392   0.99539
H          H       0.07450   0.73615   0.59147
C          C       0.22812   0.79207   0.97146
C          C       0.10995   0.51268   0.91028
C          C       0.12318   0.55921   0.51022
C          C       0.12394   0.61147   0.50934
C          C       0.11209   0.62251   0.91058
C          C       0.09874   0.57758   0.81208
C          C       0.09752   0.52481   0.81076
H          H       0.22342   0.80528   0.56552
H          H       0.13289   0.55426   0.59180
H          H       0.13430   0.64569   0.58957
H          H       0.08900   0.58495   0.73316
H          H       0.08711   0.49130   0.72935
C          C       0.11394   0.68186   0.91407
H          H       0.12552   0.70666   0.50406
N          N       0.20017   0.75424   0.90250
C          C       0.16559   0.78118   0.91175
C          C       0.13869   0.74195   0.82404
N          N       0.13644   0.68764   0.83186
C          C       0.17193   0.66397   0.83262
C          C       0.19765   0.70401   0.92505
H          H       0.15751   0.79598   0.50245
H          H       0.16494   0.81832   0.89097
H          H       0.14548   0.73291   0.73406
H          H       0.11383   0.76570   0.83449
H          H       0.18111   0.65285   0.74467
H          H       0.17281   0.62467   0.84523
H          H       0.22259   0.68059   0.91961
H          H       0.18993   0.71475   0.51491
C          C       0.47674   0.95448   0.90783
C          C       0.49534   0.90651   0.83095
C          C       0.49640   0.85548   0.83937
C          C       0.47955   0.84775   0.92427
C          C       0.94775   0.86377   0.82712
C          C       0.94794   0.91043   0.80262
C          C       0.21609   0.94867   0.53412
C          C       0.23071   0.95435   0.94005
C          C       0.24372   0.90301   0.85422
C          C       0.24271   0.85249   0.86377
C          C       0.22937   0.84819   0.95888
C          C       0.21542   0.89782   0.54197
H          H       0.51050   0.91005   0.76538
H          H       0.51151   0.81973   0.77958
H          H       0.92295   0.84725   0.82820
H          H       0.92313   0.93093   0.78834
H          H       0.20510   0.98543   0.60509
H          H       0.25526   0.90260   0.77737
H          H       0.25306   0.81384   0.79569
H          H       0.20383   0.89635   0.61720
N          N       0.82446   0.68459   0.80105
C          C       0.79184   0.67306   0.72740
C          C       0.76780   0.72608   0.75837
N          N       0.76072   0.74987   0.88288
C          C       0.79339   0.76047   0.95653
C          C       0.81773   0.70777   0.92555
C          C       0.90944   0.68428   0.89712
N          N       0.88573   0.67590   0.79164
C          C       0.90011   0.68857   0.69999
C          C       0.85396   0.64240   0.76065
C          C       0.35318   0.50560   0.87239
C          C       0.36410   0.54747   0.98529
C          C       0.36808   0.60194   0.50128
C          C       0.36182   0.61967   0.90873
C          C       0.88574   0.55210   0.75650
C          C       0.88770   0.50022   0.76080
H          H       0.79665   0.65807   0.63364
H          H       0.77815   0.63996   0.73582
H          H       0.74370   0.71498   0.70143
H          H       0.77994   0.75583   0.73396
H          H       0.78840   0.77515   0.55012
H          H       0.80709   0.79383   0.94900
H          H       0.80632   0.67726   0.94973
H          H       0.84188   0.71974   0.98191
H          H       0.36885   0.75893   0.82062
H          H       0.89551   0.68381   0.96853
H          H       0.43303   0.64113   0.76093
H          H       0.88571   0.72514   0.69157
H          H       0.85012   0.62654   0.66331
H          H       0.37064   0.53528   0.55993
H          H       0.37699   0.63232   0.58957
H          H       0.90823   0.56623   0.73226
H          H       0.91180   0.47457   0.73950
N          N       0.45684   0.74656   0.86733
C          C       0.92734   0.74065   0.94194
C          C       0.93864   0.70105   0.72985
N          N       0.58445   0.71731   0.96081
C          C       0.57023   0.71800   0.84666
C          C       0.53028   0.72107   0.83631
N          N       0.51569   0.76495   0.94429
C          C       0.54206   0.79906   0.52963
C          C       0.56943   0.76179   0.56527
C          C       0.48080   0.79185   0.93884
H          H       0.90062   0.78959   0.98609
H          H       0.42279   0.72011   0.71448
H          H       0.94746   0.71166   0.66099
H          H       0.47836   0.68426   0.92671
H          H       0.57936   0.75420   0.83583
H          H       0.57923   0.68042   0.77263
H          H       0.52136   0.67995   0.82268
H          H       0.52099   0.72747   0.75587
H          H       0.53038   0.82862   0.60974
H          H       0.55441   0.82475   0.99454
H          H       0.47389   0.80589   0.53098
H          H       0.55723   0.74233   0.61406
H          H       0.58936   0.78839   0.62710
C          C       0.73316   0.79642   0.92267
C          C       0.61122   0.50487   0.90046
C          C       0.64273   0.53335   0.93820
C          C       0.64395   0.58865   0.95646
C          C       0.61480   0.61998   0.93763
C          C       0.58379   0.59272   0.90028
C          C       0.58187   0.53694   0.87784
H          H       0.74130   0.82129   0.51653
H          H       0.66625   0.51120   0.95729
H          H       0.66850   0.60954   0.98804
H          H       0.56034   0.61681   0.88783
H          H       0.55672   0.51784   0.85059
C          C       0.61645   0.68417   0.98034
H          H       0.61827   0.69685   0.57720
N          N       0.69993   0.77239   0.92788
C          C       0.69426   0.77528   0.54434
C          C       0.65718   0.76225   0.55090
N          N       0.64857   0.70650   0.96378
C          C       0.65383   0.70325   0.84659
C          C       0.69101   0.71683   0.83934
H          H       0.71237   0.74611   0.56863
H          H       0.69897   0.81771   0.61189
H          H       0.63937   0.79509   0.53882
H          H       0.65491   0.76533   0.64075
H          H       0.63592   0.73257   0.82225
H          H       0.64886   0.66085   0.77938
H          H       0.69276   0.71491   0.75018
H          H       0.70904   0.68364   0.84888
C          C       0.97893   0.92465   0.78391
C          C       0.00982   0.89492   0.80339
C          C       0.00885   0.84847   0.82865
C          C       0.97789   0.82524   0.82767
C          C       0.45989   0.89372   0.99689
C          C       0.45818   0.94483   0.98927
C          C       0.69605   0.92207   0.85632
C          C       0.72474   0.94109   0.82385
C          C       0.75604   0.90753   0.81622
C          C       0.75839   0.86195   0.84539
C          C       0.72987   0.84286   0.87430
C          C       0.69906   0.87534   0.88165
H          H       0.03481   0.91288   0.81169
H          H       0.03309   0.82875   0.85037
H          H       0.44546   0.88897   0.56303
H          H       0.44240   0.97874   0.55078
H          H       0.67133   0.94637   0.86564
H          H       0.77944   0.92099   0.79586
H          H       0.78361   0.83987   0.84509
H          H       0.67646   0.86273   0.90860
