data_TH-COF-1
_audit_creation_date              0000-00-00
_audit_creation_method            'LanYouShi'
_symmetry_space_group_name_H-M    'P1'
_cell_length_a                    22.7791004
_cell_length_b                    22.7791004
_cell_length_c                    3.5664999
_cell_angle_alpha                 90.0000000
_cell_angle_beta                  90.0000000
_cell_angle_gamma                 120.0000000
loop_
_atom_site_label
_atom_site_type_symbol
_atom_site_fract_x
_atom_site_fract_y
_atom_site_fract_z
_atom_site_U_iso_or_equiv
_atom_site_adp_type
_atom_site_occupancy
        C1          C  0.7358451  0.3832048  0.4999931    0.00000       Uiso       1.00
        C2          C  0.6167945  0.3526404  0.4999931    0.00000       Uiso       1.00
        C3          C  0.6473589  0.2641541  0.4999931    0.00000       Uiso       1.00
        C4          C  0.2641541  0.6167945  0.4999931    0.00000       Uiso       1.00
        C5          C  0.3832048  0.6473589  0.4999931    0.00000       Uiso       1.00
        C6          C  0.3526404  0.7358451  0.4999931    0.00000       Uiso       1.00
        C7          C  0.6859414  0.4020710  0.4999931    0.00000       Uiso       1.00
        C8          C  0.5979282  0.2838704  0.4999931    0.00000       Uiso       1.00
        C9          C  0.7161288  0.3140579  0.4999931    0.00000       Uiso       1.00
       C10          C  0.3140579  0.5979282  0.4999931    0.00000       Uiso       1.00
       C11          C  0.4020710  0.7161289  0.4999931    0.00000       Uiso       1.00
       C12          C  0.2838704  0.6859414  0.4999931    0.00000       Uiso       1.00
       C13          C  0.8081607  0.4361147  0.4999931    0.00000       Uiso       1.00
       C14          C  0.5638846  0.3720460  0.4999931    0.00000       Uiso       1.00
       C15          C  0.6279532  0.1918385  0.4999931    0.00000       Uiso       1.00
       C16          C  0.1918385  0.5638846  0.4999931    0.00000       Uiso       1.00
       C17          C  0.4361147  0.6279532  0.4999931    0.00000       Uiso       1.00
       C18          C  0.3720460  0.8081607  0.4999931    0.00000       Uiso       1.00
        N1          N  0.8547538  0.4190676  0.4999931    0.00000       Uiso       1.00
        N2          N  0.5809317  0.4356862  0.4999931    0.00000       Uiso       1.00
        N3          N  0.5643131  0.1452455  0.4999931    0.00000       Uiso       1.00
        N4          N  0.1452455  0.5809317  0.4999931    0.00000       Uiso       1.00
        N5          N  0.4190676  0.5643131  0.4999931    0.00000       Uiso       1.00
        N6          N  0.4356862  0.8547537  0.4999931    0.00000       Uiso       1.00
       C19          C  0.9275014  0.4616177  0.4999931    0.00000       Uiso       1.00
       C20          C  0.5383815  0.4658837  0.4999931    0.00000       Uiso       1.00
       C21          C  0.5341155  0.0724978  0.4999931    0.00000       Uiso       1.00
       C22          C  0.0724978  0.5383815  0.4999931    0.00000       Uiso       1.00
       C23          C  0.4616177  0.5341155  0.4999931    0.00000       Uiso       1.00
       C24          C  0.4658838  0.9275015  0.4999931    0.00000       Uiso       1.00
       C25          C  0.9668909  0.4300840  0.4999931    0.00000       Uiso       1.00
       C26          C  0.5699152  0.5368069  0.4999931    0.00000       Uiso       1.00
       C27          C  0.4631923  0.0331083  0.4999931    0.00000       Uiso       1.00
       C28          C  0.0331083  0.5699152  0.4999931    0.00000       Uiso       1.00
       C29          C  0.4300840  0.4631923  0.4999931    0.00000       Uiso       1.00
       C30          C  0.5368069  0.9668909  0.4999931    0.00000       Uiso       1.00
       C31          C  0.0370312  0.4666992  0.4999931    0.00000       Uiso       1.00
       C32          C  0.5333001  0.5703313  0.4999931    0.00000       Uiso       1.00
       C33          C  0.4296679  0.9629680  0.4999931    0.00000       Uiso       1.00
       C34          C  0.9629680  0.5333001  0.4999931    0.00000       Uiso       1.00
       C35          C  0.4666992  0.4296679  0.4999931    0.00000       Uiso       1.00
       C36          C  0.5703313  0.0370312  0.4999931    0.00000       Uiso       1.00
        H1          H  0.7008421  0.4553742  0.4999931    0.00000       Uiso       1.00
        H2          H  0.5446250  0.2454680  0.4999931    0.00000       Uiso       1.00
        H3          H  0.7545313  0.2991571  0.4999931    0.00000       Uiso       1.00
        H4          H  0.2991571  0.5446250  0.4999931    0.00000       Uiso       1.00
        H5          H  0.4553742  0.7545313  0.4999931    0.00000       Uiso       1.00
        H6          H  0.2454680  0.7008421  0.4999931    0.00000       Uiso       1.00
        H7          H  0.8203885  0.4883381  0.4999931    0.00000       Uiso       1.00
        H8          H  0.5116612  0.3320505  0.4999931    0.00000       Uiso       1.00
        H9          H  0.6679488  0.1796107  0.4999931    0.00000       Uiso       1.00
       H10          H  0.1796108  0.5116612  0.4999931    0.00000       Uiso       1.00
       H11          H  0.4883380  0.6679488  0.4999931    0.00000       Uiso       1.00
       H12          H  0.3320504  0.8203884  0.4999931    0.00000       Uiso       1.00
        N7          N  0.9392078  0.3587723  0.4999931    0.00000       Uiso       1.00
        N8          N  0.6412269  0.5804355  0.4999931    0.00000       Uiso       1.00
        N9          N  0.4195637  0.0607914  0.4999931    0.00000       Uiso       1.00
       N10          N  0.0607914  0.6412270  0.4999931    0.00000       Uiso       1.00
       N11          N  0.3587723  0.4195637  0.4999931    0.00000       Uiso       1.00
       N12          N  0.5804355  0.9392078  0.4999931    0.00000       Uiso       1.00
       N13          N  0.0668700  0.4250091  0.4999931    0.00000       Uiso       1.00
       N14          N  0.5749902  0.6418602  0.4999931    0.00000       Uiso       1.00
       N15          N  0.3581391  0.9331293  0.4999931    0.00000       Uiso       1.00
       N16          N  0.9331293  0.5749901  0.4999931    0.00000       Uiso       1.00
       N17          N  0.4250091  0.3581391  0.4999931    0.00000       Uiso       1.00
       N18          N  0.6418602  0.0668700  0.4999931    0.00000       Uiso       1.00
        S1          S  0.3371445  0.3327436  0.4999931    0.00000       Uiso       1.00
        S2          S  0.6672556  0.0044009  0.4999931    0.00000       Uiso       1.00
        S3          S  0.9955984  0.6628547  0.4999931    0.00000       Uiso       1.00
        S4          S  0.6628547  0.6672556  0.4999931    0.00000       Uiso       1.00
        S5          S  0.3327437  0.9955984  0.4999931    0.00000       Uiso       1.00
        S6          S  0.0044009  0.3371446  0.4999931    0.00000       Uiso       1.00
