data_TP-COF-BZ
_audit_creation_date              0000-00-00
_audit_creation_method            'LanYouShi'
_symmetry_space_group_name_H-M    'P1'
_cell_length_a                    65.0999985
_cell_length_b                    65.0999985
_cell_length_c                    3.9500000
_cell_angle_alpha                 90.0000000
_cell_angle_beta                  90.0000000
_cell_angle_gamma                 120.0000000
loop_
_atom_site_label
_atom_site_type_symbol
_atom_site_fract_x
_atom_site_fract_y
_atom_site_fract_z
_atom_site_U_iso_or_equiv
_atom_site_adp_type
_atom_site_occupancy
        H1          H  0.1944600  1.2388979  0.0000000    0.00000       Uiso       1.00
        H2          H  0.1465300  1.1642340  0.0000000    0.00000       Uiso       1.00
        H3          H  0.2222930  1.1919630  0.0000000    0.00000       Uiso       1.00
        H4          H  0.1534520  1.2256509  0.0000000    0.00000       Uiso       1.00
        H5          H  0.2494200  1.2316000  0.0000000    0.00000       Uiso       1.00
        H6          H  0.1217310  1.2290549  0.0000000    0.00000       Uiso       1.00
        H7          H  0.0853120  1.2296871  0.0000000    0.00000       Uiso       1.00
        H8          H  0.0460880  1.1521900  0.0000000    0.00000       Uiso       1.00
        H9          H  0.0831080  1.1523941  0.0000000    0.00000       Uiso       1.00
       H10          H  0.2844830  1.2620651  0.0000000    0.00000       Uiso       1.00
       H11          H  0.3221900  1.2978530  0.0000000    0.00000       Uiso       1.00
       H12          H  0.2858550  1.3389980  0.0000000    0.00000       Uiso       1.00
       H13          H  0.2484550  1.3026919  0.0000000    0.00000       Uiso       1.00
       H14          H  0.0549261  1.2299740  0.0000000    0.00000       Uiso       1.00
       H15          H  0.0179450  1.2298419  0.0000000    0.00000       Uiso       1.00
       H16          H -0.0207790  1.1531529  0.0000000    0.00000       Uiso       1.00
       H17          H  0.0156190  1.1524670  0.0000000    0.00000       Uiso       1.00
       H18          H  0.3534970  1.3279279  0.0000000    0.00000       Uiso       1.00
       H19          H  0.3908350  1.3645689  0.0000000    0.00000       Uiso       1.00
       H20          H  0.3541210  1.4045269  0.0000000    0.00000       Uiso       1.00
       H21          H  0.3167310  1.3686810  0.0000000    0.00000       Uiso       1.00
       H22          H  0.1408100  1.1319829  0.0000000    0.00000       Uiso       1.00
       H23          H  0.1345750  1.0921030  0.0000000    0.00000       Uiso       1.00
       H24          H  0.1674480  1.0846469  0.0000000    0.00000       Uiso       1.00
       H25          H  0.2167180  1.1602050  0.0000000    0.00000       Uiso       1.00
       H26          H  0.1943730  1.0794470  0.0000000    0.00000       Uiso       1.00
       H27          H  0.2690600  1.1065030  0.0000000    0.00000       Uiso       1.00
       H28          H  0.2431880  1.1550679  0.0000000    0.00000       Uiso       1.00
       H29          H  0.2071070  1.0516829  0.0000000    0.00000       Uiso       1.00
       H30          H  0.2970560  1.1473351  0.0000000    0.00000       Uiso       1.00
       H31          H  0.3889230  1.4354140  0.0000000    0.00000       Uiso       1.00
       H32          H  0.4428529  1.4278510  0.0000000    0.00000       Uiso       1.00
       H33          H  0.4915640  1.5034950  0.0000000    0.00000       Uiso       1.00
       H34          H  0.4168350  1.4762800  0.0000000    0.00000       Uiso       1.00
       H35          H  0.4787300  1.5312010  0.0000000    0.00000       Uiso       1.00
       H36          H  0.4692950  1.4227850  0.0000000    0.00000       Uiso       1.00
       H37          H  0.5451700  1.4509270  0.0000000    0.00000       Uiso       1.00
       H38          H  0.5514430  1.4908390  0.0000000    0.00000       Uiso       1.00
       H39          H  0.5185710  1.4983250  0.0000000    0.00000       Uiso       1.00
       H40          H  0.4636210  1.3910590  0.0000000    0.00000       Uiso       1.00
       H41          H  0.4912290  1.3439521  0.0000000    0.00000       Uiso       1.00
       H42          H  0.5393610  1.4185810  0.0000000    0.00000       Uiso       1.00
       H43          H  0.4363790  1.3513789  0.0000000    0.00000       Uiso       1.00
       H44          H  0.5321500  1.3569970  0.0000000    0.00000       Uiso       1.00
       H45          H  0.3319690  1.1783190  0.0000000    0.00000       Uiso       1.00
       H46          H  0.3693390  1.2142280  0.0000000    0.00000       Uiso       1.00
       H47          H  0.3324220  1.2548350  0.0000000    0.00000       Uiso       1.00
       H48          H  0.2951360  1.2181580  0.0000000    0.00000       Uiso       1.00
       H49          H  0.4001920  1.2439830  0.0000000    0.00000       Uiso       1.00
       H50          H  0.4375300  1.2803700  0.0000000    0.00000       Uiso       1.00
       H51          H  0.4012870  1.3207880  0.0000000    0.00000       Uiso       1.00
       H52          H  0.3636420  1.2849259  0.0000000    0.00000       Uiso       1.00
       H53          H  0.2036360  1.0164100  0.0000000    0.00000       Uiso       1.00
       H54          H  0.2030690  0.9793750  0.0000000    0.00000       Uiso       1.00
       H55          H  0.2805670  1.0177550  0.0000000    0.00000       Uiso       1.00
       H56          H  0.2803050  1.0545400  0.0000000    0.00000       Uiso       1.00
       H57          H  0.2028790  0.9486880  0.0000000    0.00000       Uiso       1.00
       H58          H  0.2031600  0.9119150  0.0000000    0.00000       Uiso       1.00
       H59          H  0.2798300  0.9500660  0.0000000    0.00000       Uiso       1.00
       H60          H  0.2803840  0.9870970  0.0000000    0.00000       Uiso       1.00
       H61          H  0.2763900  0.9148290  0.0000000    0.00000       Uiso       1.00
       H62          H  0.2149410  0.8601840  0.0000000    0.00000       Uiso       1.00
       H63          H  0.2429900  0.8124090  0.0000000    0.00000       Uiso       1.00
       H64          H  0.2896620  0.8872100  0.0000000    0.00000       Uiso       1.00
       H65          H  0.2826310  0.8250750  0.0000000    0.00000       Uiso       1.00
       H66          H  0.1827110  0.8334470  0.0000000    0.00000       Uiso       1.00
       H67          H  0.1429140  0.7996220  0.0000000    0.00000       Uiso       1.00
       H68          H  0.1357290  0.7593980  0.0000000    0.00000       Uiso       1.00
       H69          H  0.2113520  0.7861060  0.0000000    0.00000       Uiso       1.00
       H70          H  0.1307330  0.7273810  0.0000000    0.00000       Uiso       1.00
       H71          H  0.1580960  0.6800200  0.0000000    0.00000       Uiso       1.00
       H72          H  0.2064170  0.7545280  0.0000000    0.00000       Uiso       1.00
       H73          H  0.1031400  0.6869270  0.0000000    0.00000       Uiso       1.00
       H74          H  0.1988900  0.6929730  0.0000000    0.00000       Uiso       1.00
       H75          H  0.2298050  0.6890290  0.0000000    0.00000       Uiso       1.00
       H76          H  0.2656860  0.6875230  0.0000000    0.00000       Uiso       1.00
       H77          H  0.3063650  0.7650450  0.0000000    0.00000       Uiso       1.00
       H78          H  0.2697140  0.7657050  0.0000000    0.00000       Uiso       1.00
       H79          H  0.3130810  0.8205880  0.0000000    0.00000       Uiso       1.00
       H80          H  0.3488970  0.8187520  0.0000000    0.00000       Uiso       1.00
       H81          H  0.3899320  0.8962420  0.0000000    0.00000       Uiso       1.00
       H82          H  0.3535740  0.8972540  0.0000000    0.00000       Uiso       1.00
       H83          H  0.2954290  0.6863830  0.0000000    0.00000       Uiso       1.00
       H84          H  0.3318010  0.6853990  0.0000000    0.00000       Uiso       1.00
       H85          H  0.3722540  0.7620580  0.0000000    0.00000       Uiso       1.00
       H86          H  0.3364280  0.7638730  0.0000000    0.00000       Uiso       1.00
       H87          H  0.3789410  0.8175620  0.0000000    0.00000       Uiso       1.00
       H88          H  0.4155810  0.8168800  0.0000000    0.00000       Uiso       1.00
       H89          H  0.4555210  0.8935560  0.0000000    0.00000       Uiso       1.00
       H90          H  0.4196580  0.8950860  0.0000000    0.00000       Uiso       1.00
       H91          H  0.4863720  0.8895980  0.0000000    0.00000       Uiso       1.00
       H92          H  0.4027270  0.7575990  0.0000000    0.00000       Uiso       1.00
       H93          H  0.3956850  0.6954670  0.0000000    0.00000       Uiso       1.00
       H94          H  0.4704030  0.7224620  0.0000000    0.00000       Uiso       1.00
       H95          H  0.4423770  0.7702570  0.0000000    0.00000       Uiso       1.00
       H96          H  0.4788870  0.8280660  0.0000000    0.00000       Uiso       1.00
       H97          H  0.5545750  0.8552631  0.0000000    0.00000       Uiso       1.00
       H98          H  0.5271620  0.9025860  0.0000000    0.00000       Uiso       1.00
       H99          H  0.5026490  0.7491930  0.0000000    0.00000       Uiso       1.00
      H100          H  0.5424460  0.7830250  0.0000000    0.00000       Uiso       1.00
      H101          H  0.5496200  0.8232500  0.0000000    0.00000       Uiso       1.00
      H102          H  0.4739960  0.7965210  0.0000000    0.00000       Uiso       1.00
      H103          H  0.0680190  0.6553150  0.0000000    0.00000       Uiso       1.00
      H104          H  0.0309360  0.6189290  0.0000000    0.00000       Uiso       1.00
      H105          H  0.0691060  0.5796000  0.0000000    0.00000       Uiso       1.00
      H106          H  0.1059610  0.6165850  0.0000000    0.00000       Uiso       1.00
      H107          H  0.0001980  0.5885020  0.0000000    0.00000       Uiso       1.00
      H108          H -0.0366480  0.5515220  0.0000000    0.00000       Uiso       1.00
      H109          H  0.0012880  0.5127850  0.0000000    0.00000       Uiso       1.00
      H110          H  0.0383820  0.5491860  0.0000000    0.00000       Uiso       1.00
      H111          H -0.0339190  0.4811130  0.0000000    0.00000       Uiso       1.00
      H112          H -0.0886520  0.4878260  0.0000000    0.00000       Uiso       1.00
      H113          H -0.1362520  0.4119620  0.0000000    0.00000       Uiso       1.00
      H114          H -0.0614370  0.4402770  0.0000000    0.00000       Uiso       1.00
      H115          H -0.1155190  0.4931780  0.0000000    0.00000       Uiso       1.00
      H116          H -0.1494720  0.4989590  0.0000010    0.00000       Uiso       1.00
      H117          H -0.1896190  0.4658010  0.0000000    0.00000       Uiso       1.00
      H118          H -0.1626090  0.4171440 -0.0000010    0.00000       Uiso       1.00
      H119          H -0.2215480  0.4386910  0.0000000    0.00000       Uiso       1.00
      H120          H -0.2687010  0.3639360  0.0000000    0.00000       Uiso       1.00
      H121          H -0.1941350  0.3903760  0.0000000    0.00000       Uiso       1.00
      H122          H -0.2556090  0.3361990  0.0000000    0.00000       Uiso       1.00
      H123          H -0.1235290  0.3850900  0.0000000    0.00000       Uiso       1.00
      H124          H -0.2594530  0.3013720  0.0000000    0.00000       Uiso       1.00
      H125          H -0.2608600  0.2640400  0.0000000    0.00000       Uiso       1.00
      H126          H -0.1833500  0.3010190  0.0000000    0.00000       Uiso       1.00
      H127          H -0.1827810  0.3382860  0.0000000    0.00000       Uiso       1.00
      H128          H -0.1280180  0.3502020  0.0000000    0.00000       Uiso       1.00
      H129          H -0.1298690  0.3125440  0.0000000    0.00000       Uiso       1.00
      H130          H -0.0523760  0.3489830  0.0000000    0.00000       Uiso       1.00
      H131          H -0.0513500  0.3863570  0.0000000    0.00000       Uiso       1.00
      H132          H -0.2619460  0.2331940  0.0000000    0.00000       Uiso       1.00
      H133          H -0.2628710  0.1958690  0.0000000    0.00000       Uiso       1.00
      H134          H -0.1862050  0.2321660  0.0000000    0.00000       Uiso       1.00
      H135          H -0.1844460  0.2697920  0.0000000    0.00000       Uiso       1.00
      H136          H -0.1310640  0.2812890  0.0000000    0.00000       Uiso       1.00
      H137          H -0.1317320  0.2439690  0.0000000    0.00000       Uiso       1.00
      H138          H -0.0550510  0.2807460  0.0000000    0.00000       Uiso       1.00
      H139          H -0.0535420  0.3181130  0.0000000    0.00000       Uiso       1.00
      H140          H -0.1906450  0.1972170  0.0000000    0.00000       Uiso       1.00
      H141          H -0.0589280  0.2460660  0.0000000    0.00000       Uiso       1.00
      H142          H -0.2527550  0.1420460  0.0000000    0.00000       Uiso       1.00
      H143          H -0.2256050  0.0944380  0.0000000    0.00000       Uiso       1.00
      H144          H -0.1779620  0.1702980  0.0000000    0.00000       Uiso       1.00
      H145          H -0.1203060  0.1918100  0.0000000    0.00000       Uiso       1.00
      H146          H -0.0927010  0.1436520  0.0000000    0.00000       Uiso       1.00
      H147          H -0.0457250  0.2184560  0.0000000    0.00000       Uiso       1.00
      H148          H -0.1517090  0.1650390  0.0000000    0.00000       Uiso       1.00
      H149          H -0.1987670  0.0890170  0.0000000    0.00000       Uiso       1.00
      H150          H -0.1647970  0.0832520  0.0000000    0.00000       Uiso       1.00
      H151          H -0.1246380  0.1164410  0.0000000    0.00000       Uiso       1.00
      H152          H -0.2802910  0.1011870  0.0000000    0.00000       Uiso       1.00
      H153          H  0.5821270  0.8956430  0.0000000    0.00000       Uiso       1.00
      H154          H  0.6172820  0.9271350  0.0000000    0.00000       Uiso       1.00
      H155          H  0.6544520  0.9634180  0.0000000    0.00000       Uiso       1.00
      H156          H  0.6165960  1.0030481  0.0000000    0.00000       Uiso       1.00
      H157          H  0.5796420  0.9661630  0.0000000    0.00000       Uiso       1.00
      H158          H -0.0523310  1.1566701  0.0000000    0.00000       Uiso       1.00
      H159          H  0.4820920  1.5664660  0.0000000    0.00000       Uiso       1.00
      H160          H  0.4825420  1.6034410  0.0000000    0.00000       Uiso       1.00
      H161          H  0.4050560  1.5648849  0.0000000    0.00000       Uiso       1.00
      H162          H  0.4054390  1.5281609  0.0000000    0.00000       Uiso       1.00
      H163          H  0.4826470  1.6340920  0.0000000    0.00000       Uiso       1.00
      H164          H  0.4822720  1.6708170  0.0000000    0.00000       Uiso       1.00
      H165          H  0.4056011  1.6325251  0.0000000    0.00000       Uiso       1.00
      H166          H  0.4051420  1.5955271  0.0000000    0.00000       Uiso       1.00
      H167          H  0.4089670  1.6678140  0.0000000    0.00000       Uiso       1.00
      H168          H  0.5639490  1.3534700  0.0000000    0.00000       Uiso       1.00
      H169          H  0.6003730  1.3528110  0.0000000    0.00000       Uiso       1.00
      H170          H  0.6396330  1.4303110  0.0000000    0.00000       Uiso       1.00
      H171          H  0.6026290  1.4301320  0.0000000    0.00000       Uiso       1.00
      H172          H  0.6307780  1.3525209  0.0000000    0.00000       Uiso       1.00
      H173          H  0.6677620  1.3526599  0.0000000    0.00000       Uiso       1.00
      H174          H  0.7064860  1.4293300  0.0000000    0.00000       Uiso       1.00
      H175          H  0.6700929  1.4300250  0.0000000    0.00000       Uiso       1.00
      H176          H  0.7380840  1.4257900  0.0000000    0.00000       Uiso       1.00
      H177          H  0.6852870  0.9937690  0.0000000    0.00000       Uiso       1.00
      H178          H  0.7222360  1.0306511  0.0000000    0.00000       Uiso       1.00
      H179          H  0.6845950  1.0696840  0.0000000    0.00000       Uiso       1.00
      H180          H  0.6474160  1.0333930  0.0000000    0.00000       Uiso       1.00
        C1          C  3.1914399 -1.7792630  0.0000000    0.00000       Uiso       1.00
        C2          C  3.1680372 -1.7981430  0.0000000    0.00000       Uiso       1.00
        C3          C  3.1647968 -1.8209370  0.0000000    0.00000       Uiso       1.00
        C4          C  3.1837819 -1.8257440  0.0000000    0.00000       Uiso       1.00
        C5          C  3.2068388 -1.8055840  0.0000000    0.00000       Uiso       1.00
        C6          C  3.2111821 -1.7824399  0.0000000    0.00000       Uiso       1.00
        C7          C  3.1485879 -1.7931430  0.0000000    0.00000       Uiso       1.00
        C8          C  3.2357018 -1.7632470  0.0000000    0.00000       Uiso       1.00
        C9          C  3.2631812 -1.7206650  0.0000000    0.00000       Uiso       1.00
       C10          C  3.1055672 -1.8093859  0.0000000    0.00000       Uiso       1.00
       C11          C  3.1050909 -1.7880230  0.0000000    0.00000       Uiso       1.00
       C12          C  3.0840912 -1.7877460  0.0000000    0.00000       Uiso       1.00
       C13          C  3.0616229 -1.8090200  0.0000000    0.00000       Uiso       1.00
       C14          C  3.0624402 -1.8304900  0.0000000    0.00000       Uiso       1.00
       C15          C  3.0835688 -1.8304939  0.0000000    0.00000       Uiso       1.00
       C16          C  3.2846382 -1.7209940  0.0000000    0.00000       Uiso       1.00
       C17          C  3.3062780 -1.7003970  0.0000000    0.00000       Uiso       1.00
       C18          C  3.3081813 -1.6776171  0.0000000    0.00000       Uiso       1.00
       C19          C  3.2862749 -1.6776409  0.0000000    0.00000       Uiso       1.00
       C20          C  3.2647922 -1.6983581  0.0000000    0.00000       Uiso       1.00
       C21          C  3.0393329 -1.8088250  0.0000000    0.00000       Uiso       1.00
       C22          C  3.3309712 -1.6557029  0.0000000    0.00000       Uiso       1.00
       C23          C  3.0385580 -1.7873300  0.0000000    0.00000       Uiso       1.00
       C24          C  3.0174551 -1.7872831  0.0000000    0.00000       Uiso       1.00
       C25          C  2.9954472 -1.8083719  0.0000000    0.00000       Uiso       1.00
       C26          C  2.9958718 -1.8297710  0.0000000    0.00000       Uiso       1.00
       C27          C  3.0168521 -1.8300891  0.0000000    0.00000       Uiso       1.00
       C28          C  3.3529799 -1.6554810  0.0000000    0.00000       Uiso       1.00
       C29          C  3.3743691 -1.6346140  0.0000000    0.00000       Uiso       1.00
       C30          C  3.3757281 -1.6123930  0.0000000    0.00000       Uiso       1.00
       C31          C  3.3541772 -1.6123090  0.0000000    0.00000       Uiso       1.00
       C32          C  3.3326747 -1.6330119  0.0000000    0.00000       Uiso       1.00
       C33          C  3.1798573 -1.8498660  0.0000000    0.00000       Uiso       1.00
       C34          C  3.1565640 -1.8699961  0.0000000    0.00000       Uiso       1.00
       C35          C  3.1528082 -1.8927910  0.0000000    0.00000       Uiso       1.00
       C36          C  3.1716807 -1.8968151  0.0000000    0.00000       Uiso       1.00
       C37          C  3.1956019 -1.8777860  0.0000000    0.00000       Uiso       1.00
       C38          C  3.1986220 -1.8547881  0.0000000    0.00000       Uiso       1.00
       C39          C  3.2155828 -1.8820610  0.0000000    0.00000       Uiso       1.00
       C40          C  3.2123909 -1.9052750  0.0000000    0.00000       Uiso       1.00
       C41          C  3.2310181 -1.9099361  0.0000000    0.00000       Uiso       1.00
       C42          C  3.2540112 -1.8903329  0.0000000    0.00000       Uiso       1.00
       C43          C  3.2587729 -1.8668690  0.0000000    0.00000       Uiso       1.00
       C44          C  3.2394469 -1.8632970  0.0000000    0.00000       Uiso       1.00
       C45          C  3.2259138 -1.9344170  0.0000000    0.00000       Uiso       1.00
       C46          C  3.2832611 -1.8476180  0.0000000    0.00000       Uiso       1.00
       C47          C  3.3103132 -1.8048130  0.0000000    0.00000       Uiso       1.00
       C48          C  3.2420862 -1.9612670  0.0000000    0.00000       Uiso       1.00
       C49          C  3.4027450 -1.5695950  0.0000000    0.00000       Uiso       1.00
       C50          C  3.4272077 -1.5502840  0.0000000    0.00000       Uiso       1.00
       C51          C  3.4465671 -1.5537940  0.0000000    0.00000       Uiso       1.00
       C52          C  3.4704149 -1.5349939  0.0000000    0.00000       Uiso       1.00
       C53          C  3.4735541 -1.5118021  0.0000000    0.00000       Uiso       1.00
       C54          C  3.4548891 -1.5071959  0.0000000    0.00000       Uiso       1.00
       C55          C  3.4319150 -1.5268360  0.0000000    0.00000       Uiso       1.00
       C56          C  3.4599338 -1.4827300  0.0000000    0.00000       Uiso       1.00
       C57          C  3.4904160 -1.5392370  0.0000000    0.00000       Uiso       1.00
       C58          C  3.4873908 -1.5622320  0.0000000    0.00000       Uiso       1.00
       C59          C  3.5061328 -1.5671819  0.0000000    0.00000       Uiso       1.00
       C60          C  3.5294321 -1.5470649  0.0000000    0.00000       Uiso       1.00
       C61          C  3.5332029 -1.5242599  0.0000000    0.00000       Uiso       1.00
       C62          C  3.5143411 -1.5202140  0.0000000    0.00000       Uiso       1.00
       C63          C  3.5021412 -1.5913280  0.0000000    0.00000       Uiso       1.00
       C64          C  3.4790480 -1.6114401  0.0000000    0.00000       Uiso       1.00
       C65          C  3.4746280 -1.6346060  0.0000000    0.00000       Uiso       1.00
       C66          C  3.4943218 -1.6378610  0.0000000    0.00000       Uiso       1.00
       C67          C  3.5177541 -1.6190430  0.0000000    0.00000       Uiso       1.00
       C68          C  3.5210769 -1.5962150  0.0000000    0.00000       Uiso       1.00
       C69          C  3.4501011 -1.6537720  0.0000000    0.00000       Uiso       1.00
       C70          C  3.5371151 -1.6241800  0.0000000    0.00000       Uiso       1.00
       C71          C  3.3318861 -1.8048580  0.0000000    0.00000       Uiso       1.00
       C72          C  3.3533657 -1.7841281  0.0000000    0.00000       Uiso       1.00
       C73          C  3.3550162 -1.7614599  0.0000000    0.00000       Uiso       1.00
       C74          C  3.3329849 -1.7617300  0.0000000    0.00000       Uiso       1.00
       C75          C  3.3116241 -1.7826179  0.0000000    0.00000       Uiso       1.00
       C76          C  3.3777688 -1.7395091  0.0000000    0.00000       Uiso       1.00
       C77          C  3.3997118 -1.7394100  0.0000000    0.00000       Uiso       1.00
       C78          C  3.4211550 -1.7186509  0.0000000    0.00000       Uiso       1.00
       C79          C  3.4226780 -1.6963841  0.0000000    0.00000       Uiso       1.00
       C80          C  3.4011869 -1.6961250  0.0000000    0.00000       Uiso       1.00
       C81          C  3.3795881 -1.7167649  0.0000000    0.00000       Uiso       1.00
       C82          C  3.2207313 -1.9831220  0.0000000    0.00000       Uiso       1.00
       C83          C  3.2204893 -2.0043871  0.0000000    0.00000       Uiso       1.00
       C84          C  3.2417867 -2.0055439  0.0000000    0.00000       Uiso       1.00
       C85          C  3.2632370 -1.9832380  0.0000000    0.00000       Uiso       1.00
       C86          C  3.2632089 -1.9621240  0.0000000    0.00000       Uiso       1.00
       C87          C  3.2416649 -2.0279961  0.0000000    0.00000       Uiso       1.00
       C88          C  3.2202182 -2.0503070  0.0000000    0.00000       Uiso       1.00
       C89          C  3.2202561 -2.0714149  0.0000000    0.00000       Uiso       1.00
       C90          C  3.2413828 -2.0722699  0.0000000    0.00000       Uiso       1.00
       C91          C  3.2627339 -2.0504041  0.0000000    0.00000       Uiso       1.00
       C92          C  3.2629678 -2.0291440  0.0000000    0.00000       Uiso       1.00
       C93          C  3.2575912 -2.0990920  0.0000000    0.00000       Uiso       1.00
       C94          C  3.2525861 -2.1235471  0.0000000    0.00000       Uiso       1.00
       C95          C  3.2298250 -2.1431720  0.0000000    0.00000       Uiso       1.00
       C96          C  3.2251260 -2.1669371  0.0000000    0.00000       Uiso       1.00
       C97          C  3.2453511 -2.1697199  0.0000000    0.00000       Uiso       1.00
       C98          C  3.2684510 -2.1508520  0.0000000    0.00000       Uiso       1.00
       C99          C  3.2715268 -2.1279750  0.0000000    0.00000       Uiso       1.00
      C100          C  3.2877090 -2.1560740  0.0000000    0.00000       Uiso       1.00
      C101          C  3.2010648 -2.1872449  0.0000000    0.00000       Uiso       1.00
      C102          C  3.1808412 -2.1842411  0.0000000    0.00000       Uiso       1.00
      C103          C  3.1581018 -2.2033780  0.0000000    0.00000       Uiso       1.00
      C104          C  3.1542320 -2.2262189  0.0000000    0.00000       Uiso       1.00
      C105          C  3.1733630 -2.2309599  0.0000000    0.00000       Uiso       1.00
      C106          C  3.1962972 -2.2108870  0.0000000    0.00000       Uiso       1.00
      C107          C  3.1692381 -2.2551661  0.0000000    0.00000       Uiso       1.00
      C108          C  3.1460729 -2.2752590  0.0000000    0.00000       Uiso       1.00
      C109          C  3.1415217 -2.2985072  0.0000000    0.00000       Uiso       1.00
      C110          C  3.1611867 -2.3017919  0.0000000    0.00000       Uiso       1.00
      C111          C  3.1846161 -2.2830169  0.0000000    0.00000       Uiso       1.00
      C112          C  3.1880803 -2.2601550  0.0000000    0.00000       Uiso       1.00
      C113          C  3.1170731 -2.3179350  0.0000000    0.00000       Uiso       1.00
      C114          C  3.2039099 -2.2881920  0.0000000    0.00000       Uiso       1.00
      C115          C  3.3302863 -2.1408401  0.0000000    0.00000       Uiso       1.00
      C116          C  3.2467020 -2.2724411  0.0000000    0.00000       Uiso       1.00
      C117          C  3.2466342 -2.2940719  0.0000000    0.00000       Uiso       1.00
      C118          C  3.2673492 -2.2948520  0.0000000    0.00000       Uiso       1.00
      C119          C  3.2900281 -2.2738500  0.0000000    0.00000       Uiso       1.00
      C120          C  3.2897868 -2.2520740  0.0000000    0.00000       Uiso       1.00
      C121          C  3.2689118 -2.2515709  0.0000000    0.00000       Uiso       1.00
      C122          C  3.3299980 -2.1626041  0.0000000    0.00000       Uiso       1.00
      C123          C  3.3506167 -2.1635990  0.0000000    0.00000       Uiso       1.00
      C124          C  3.3733728 -2.1426940  0.0000000    0.00000       Uiso       1.00
      C125          C  3.3733091 -2.1208320  0.0000000    0.00000       Uiso       1.00
      C126          C  3.3525679 -2.1201131  0.0000000    0.00000       Uiso       1.00
      C127          C  3.3119631 -2.2746828  0.0000000    0.00000       Uiso       1.00
      C128          C  3.3952980 -2.1435399  0.0000000    0.00000       Uiso       1.00
      C129          C  3.3120439 -2.2965372  0.0000000    0.00000       Uiso       1.00
      C130          C  3.3327940 -2.2972422  0.0000000    0.00000       Uiso       1.00
      C131          C  3.3550699 -2.2765079  0.0000000    0.00000       Uiso       1.00
      C132          C  3.3553407 -2.2547531  0.0000000    0.00000       Uiso       1.00
      C133          C  3.3347132 -2.2537730  0.0000000    0.00000       Uiso       1.00
      C134          C  3.3955231 -2.1653249  0.0000000    0.00000       Uiso       1.00
      C135          C  3.4163888 -2.1658411  0.0000000    0.00000       Uiso       1.00
      C136          C  3.4386013 -2.1449780  0.0000000    0.00000       Uiso       1.00
      C137          C  3.4386871 -2.1233380  0.0000000    0.00000       Uiso       1.00
      C138          C  3.4179809 -2.1225441  0.0000000    0.00000       Uiso       1.00
      C139          C  3.4813702 -2.1292319  0.0000000    0.00000       Uiso       1.00
      C140          C  3.5006740 -2.1343849  0.0000000    0.00000       Uiso       1.00
      C141          C  3.3976538 -2.2612519  0.0000000    0.00000       Uiso       1.00
      C142          C  3.4169109 -2.2664790  0.0000000    0.00000       Uiso       1.00
      C143          C  3.4138258 -2.2893610  0.0000000    0.00000       Uiso       1.00
      C144          C  3.4327598 -2.2938070  0.0000000    0.00000       Uiso       1.00
      C145          C  3.4555182 -2.2741849  0.0000000    0.00000       Uiso       1.00
      C146          C  3.4602280 -2.2504151  0.0000000    0.00000       Uiso       1.00
      C147          C  3.4400101 -2.2476180  0.0000000    0.00000       Uiso       1.00
      C148          C  3.4972208 -2.1572440  0.0000000    0.00000       Uiso       1.00
      C149          C  3.5160789 -2.1622081  0.0000000    0.00000       Uiso       1.00
      C150          C  3.5392320 -2.1421039  0.0000000    0.00000       Uiso       1.00
      C151          C  3.5437717 -2.1188571  0.0000000    0.00000       Uiso       1.00
      C152          C  3.5240941 -2.1155930  0.0000000    0.00000       Uiso       1.00
      C153          C  3.4842889 -2.2301190  0.0000000    0.00000       Uiso       1.00
      C154          C  3.5119798 -2.1864059  0.0000000    0.00000       Uiso       1.00
      C155          C  3.5045192 -2.2331169  0.0000000    0.00000       Uiso       1.00
      C156          C  3.5272539 -2.2139790  0.0000000    0.00000       Uiso       1.00
      C157          C  3.5311191 -2.1911359  0.0000000    0.00000       Uiso       1.00
      C158          C  3.4890542 -2.2064791  0.0000000    0.00000       Uiso       1.00
      C159          C  3.0902541 -2.3609121  0.0000000    0.00000       Uiso       1.00
      C160          C  3.0684359 -2.3613381  0.0000000    0.00000       Uiso       1.00
      C161          C  3.0471358 -2.3823192  0.0000000    0.00000       Uiso       1.00
      C162          C  3.0459032 -2.4048069  0.0000000    0.00000       Uiso       1.00
      C163          C  3.0681739 -2.4040298  0.0000000    0.00000       Uiso       1.00
      C164          C  3.0893269 -2.3829250  0.0000000    0.00000       Uiso       1.00
      C165          C  3.0234079 -2.4270890  0.0000000    0.00000       Uiso       1.00
      C166          C  3.0011351 -2.4278691  0.0000000    0.00000       Uiso       1.00
      C167          C  2.9799860 -2.4489741  0.0000000    0.00000       Uiso       1.00
      C168          C  2.9790428 -2.4709990  0.0000000    0.00000       Uiso       1.00
      C169          C  3.0008740 -2.4705589  0.0000000    0.00000       Uiso       1.00
      C170          C  3.0221741 -2.4495778  0.0000000    0.00000       Uiso       1.00
      C171          C  2.9521649 -2.5140021  0.0000000    0.00000       Uiso       1.00
      C172          C  2.9277160 -2.5334680  0.0000000    0.00000       Uiso       1.00
      C173          C  2.9080482 -2.5303941  0.0000000    0.00000       Uiso       1.00
      C174          C  2.8843091 -2.5495138  0.0000000    0.00000       Uiso       1.00
      C175          C  2.8815932 -2.5724909  0.0000000    0.00000       Uiso       1.00
      C176          C  2.9005032 -2.5766549  0.0000000    0.00000       Uiso       1.00
      C177          C  2.9233479 -2.5568161  0.0000000    0.00000       Uiso       1.00
      C178          C  2.8639309 -2.5458691  0.0000000    0.00000       Uiso       1.00
      C179          C  2.8668270 -2.5226870  0.0000000    0.00000       Uiso       1.00
      C180          C  2.8476171 -2.5191958  0.0000000    0.00000       Uiso       1.00
      C181          C  2.8248188 -2.5382400  0.0000000    0.00000       Uiso       1.00
      C182          C  2.8201890 -2.5620761  0.0000000    0.00000       Uiso       1.00
      C183          C  2.8403301 -2.5648201  0.0000000    0.00000       Uiso       1.00
      C184          C  2.7960310 -2.5822389  0.0000000    0.00000       Uiso       1.00
      C185          C  2.7758839 -2.5792611  0.0000000    0.00000       Uiso       1.00
      C186          C  2.7526729 -2.5980108  0.0000000    0.00000       Uiso       1.00
      C187          C  2.7494671 -2.6209302  0.0000000    0.00000       Uiso       1.00
      C188          C  2.7683029 -2.6255000  0.0000000    0.00000       Uiso       1.00
      C189          C  2.7911320 -2.6060441  0.0000000    0.00000       Uiso       1.00
      C190          C  2.7632139 -2.6499488  0.0000000    0.00000       Uiso       1.00
      C191          C  2.8953159 -2.6011219  0.0000000    0.00000       Uiso       1.00
      C192          C  2.7790682 -2.6769118  0.0000000    0.00000       Uiso       1.00
      C193          C  2.9105580 -2.6284401  0.0000000    0.00000       Uiso       1.00
      C194          C  2.7574689 -2.6985080  0.0000000    0.00000       Uiso       1.00
      C195          C  2.7567463 -2.7199759  0.0000000    0.00000       Uiso       1.00
      C196          C  2.7777719 -2.7216091  0.0000000    0.00000       Uiso       1.00
      C197          C  2.7995129 -2.6995599  0.0000000    0.00000       Uiso       1.00
      C198          C  2.7999620 -2.6782088  0.0000000    0.00000       Uiso       1.00
      C199          C  2.8887880 -2.6499121  0.0000000    0.00000       Uiso       1.00
      C200          C  2.8877831 -2.6715300  0.0000000    0.00000       Uiso       1.00
      C201          C  2.9086828 -2.6733880  0.0000000    0.00000       Uiso       1.00
      C202          C  2.9305508 -2.6514652  0.0000000    0.00000       Uiso       1.00
      C203          C  2.9312801 -2.6300008  0.0000000    0.00000       Uiso       1.00
      C204          C  2.7769859 -2.7443562  0.0000000    0.00000       Uiso       1.00
      C205          C  2.9078312 -2.6961629  0.0000000    0.00000       Uiso       1.00
      C206          C  2.7551491 -2.7663109  0.0000000    0.00000       Uiso       1.00
      C207          C  2.7544780 -2.7877488  0.0000000    0.00000       Uiso       1.00
      C208          C  2.7752302 -2.7892580  0.0000000    0.00000       Uiso       1.00
      C209          C  2.7969708 -2.7677548  0.0000000    0.00000       Uiso       1.00
      C210          C  2.7979202 -2.7461600  0.0000000    0.00000       Uiso       1.00
      C211          C  2.8860509 -2.7181790  0.0000000    0.00000       Uiso       1.00
      C212          C  2.8855448 -2.7395580  0.0000000    0.00000       Uiso       1.00
      C213          C  2.9064138 -2.7408998  0.0000000    0.00000       Uiso       1.00
      C214          C  2.9280448 -2.7193360  0.0000000    0.00000       Uiso       1.00
      C215          C  2.9288287 -2.6978421  0.0000000    0.00000       Uiso       1.00
      C216          C  2.7905071 -2.8165720  0.0000000    0.00000       Uiso       1.00
      C217          C  2.7853010 -2.8410490  0.0000000    0.00000       Uiso       1.00
      C218          C  2.9222653 -2.7678201  0.0000000    0.00000       Uiso       1.00
      C219          C  2.9172502 -2.7922361  0.0000000    0.00000       Uiso       1.00
      C220          C  2.7624443 -2.8608811  0.0000000    0.00000       Uiso       1.00
      C221          C  2.7580569 -2.8842411  0.0000000    0.00000       Uiso       1.00
      C222          C  2.7776992 -2.8873408  0.0000000    0.00000       Uiso       1.00
      C223          C  2.8014429 -2.8682389  0.0000000    0.00000       Uiso       1.00
      C224          C  2.8041868 -2.8452439  0.0000000    0.00000       Uiso       1.00
      C225          C  2.8944509 -2.8117330  0.0000000    0.00000       Uiso       1.00
      C226          C  2.8896391 -2.8355088  0.0000000    0.00000       Uiso       1.00
      C227          C  2.9098260 -2.8384130  0.0000000    0.00000       Uiso       1.00
      C228          C  2.9330142 -2.8196120  0.0000000    0.00000       Uiso       1.00
      C229          C  2.9361360 -2.7967238  0.0000000    0.00000       Uiso       1.00
      C230          C  2.8217790 -2.8719320  0.0000000    0.00000       Uiso       1.00
      C231          C  2.8655121 -2.8557148  0.0000000    0.00000       Uiso       1.00
      C232          C  2.8453722 -2.8529859  0.0000000    0.00000       Uiso       1.00
      C233          C  2.8188899 -2.8951161  0.0000000    0.00000       Uiso       1.00
      C234          C  2.8381050 -2.8985951  0.0000000    0.00000       Uiso       1.00
      C235          C  2.8609092 -2.8795409  0.0000000    0.00000       Uiso       1.00
      C236          C  2.7336133 -2.9037108  0.0000000    0.00000       Uiso       1.00
      C237          C  3.5682309 -2.0994461  0.0000000    0.00000       Uiso       1.00
      C238          C  3.5951741 -2.0564940  0.0000000    0.00000       Uiso       1.00
      C239          C  3.6169450 -2.0561709  0.0000000    0.00000       Uiso       1.00
      C240          C  3.6383009 -2.0352471  0.0000000    0.00000       Uiso       1.00
      C241          C  3.6396568 -2.0127039  0.0000000    0.00000       Uiso       1.00
      C242          C  3.6174378 -2.0133710  0.0000000    0.00000       Uiso       1.00
      C243          C  3.5962272 -2.0344210  0.0000000    0.00000       Uiso       1.00
      C244          C  2.9524949 -1.8245469  0.0000000    0.00000       Uiso       1.00
      C245          C  3.4436600 -1.4559491  0.0000000    0.00000       Uiso       1.00
      C246          C  3.4649720 -1.4340560  0.0000000    0.00000       Uiso       1.00
      C247          C  3.4651461 -1.4128220  0.0000000    0.00000       Uiso       1.00
      C248          C  3.4438171 -1.4117219  0.0000000    0.00000       Uiso       1.00
      C249          C  3.4224107 -1.4340661  0.0000000    0.00000       Uiso       1.00
      C250          C  3.4225078 -1.4551481  0.0000000    0.00000       Uiso       1.00
      C251          C  3.4438732 -1.3892969  0.0000000    0.00000       Uiso       1.00
      C252          C  3.4652870 -1.3669560  0.0000000    0.00000       Uiso       1.00
      C253          C  3.4651928 -1.3458740  0.0000000    0.00000       Uiso       1.00
      C254          C  3.4440360 -1.3450700  0.0000000    0.00000       Uiso       1.00
      C255          C  3.4227171 -1.3669680  0.0000000    0.00000       Uiso       1.00
      C256          C  3.4225380 -1.3882030  0.0000000    0.00000       Uiso       1.00
      C257          C  3.4277647 -1.3182651  0.0000000    0.00000       Uiso       1.00
      C258          C  3.5801482 -1.6080810  0.0000000    0.00000       Uiso       1.00
      C259          C  3.5806003 -1.6294600  0.0000000    0.00000       Uiso       1.00
      C260          C  3.6015980 -1.6297539  0.0000000    0.00000       Uiso       1.00
      C261          C  3.6240730 -1.6084850  0.0000000    0.00000       Uiso       1.00
      C262          C  3.6232762 -1.5870050  0.0000000    0.00000       Uiso       1.00
      C263          C  3.6021531 -1.5869859  0.0000000    0.00000       Uiso       1.00
      C264          C  3.6463661 -1.6086820  0.0000000    0.00000       Uiso       1.00
      C265          C  3.6471450 -1.6301730  0.0000000    0.00000       Uiso       1.00
      C266          C  3.6682510 -1.6302170  0.0000000    0.00000       Uiso       1.00
      C267          C  3.6902640 -1.6091360  0.0000000    0.00000       Uiso       1.00
      C268          C  3.6898341 -1.5877421  0.0000000    0.00000       Uiso       1.00
      C269          C  3.6688521 -1.5874230  0.0000000    0.00000       Uiso       1.00
      C270          C  3.7332299 -1.5930010  0.0000000    0.00000       Uiso       1.00
      C271          C  3.6622179 -1.9904810  0.0000000    0.00000       Uiso       1.00
      C272          C  3.6844401 -1.9898111  0.0000000    0.00000       Uiso       1.00
      C273          C  3.7056491 -1.9687600  0.0000000    0.00000       Uiso       1.00
      C274          C  3.7066998 -1.9466840  0.0000000    0.00000       Uiso       1.00
      C275          C  3.6849213 -1.9470171  0.0000000    0.00000       Uiso       1.00
      C276          C  3.6635690 -1.9679389  0.0000000    0.00000       Uiso       1.00
        N1          N  3.2405999 -1.7413170  0.0000000    0.00000       Uiso       1.00
        N2          N  3.1267290 -1.8104450  0.0000000    0.00000       Uiso       1.00
        N3          N  3.2879629 -1.8257240  0.0000000    0.00000       Uiso       1.00
        N4          N  3.2431717 -1.9390341  0.0000000    0.00000       Uiso       1.00
        N5          N  3.3980880 -1.5914791  0.0000000    0.00000       Uiso       1.00
        N6          N  3.4452169 -1.6756959  0.0000000    0.00000       Uiso       1.00
        N7          N  3.2403133 -2.0945010  0.0000000    0.00000       Uiso       1.00
        N8          N  3.3096042 -2.1389751  0.0000000    0.00000       Uiso       1.00
        N9          N  3.2257969 -2.2709808  0.0000000    0.00000       Uiso       1.00
       N10          N  3.3757617 -2.2783551  0.0000000    0.00000       Uiso       1.00
       N11          N  3.4594917 -2.1464541  0.0000000    0.00000       Uiso       1.00
       N12          N  3.1125078 -2.3397920  0.0000000    0.00000       Uiso       1.00
       N13          N  2.9567719 -2.4921272  0.0000000    0.00000       Uiso       1.00
       N14          N  2.7804651 -2.6545689  0.0000000    0.00000       Uiso       1.00
       N15          N  2.9124322 -2.6058900  0.0000000    0.00000       Uiso       1.00
       N16          N  2.7733991 -2.8117921  0.0000000    0.00000       Uiso       1.00
       N17          N  2.9049790 -2.7632561  0.0000000    0.00000       Uiso       1.00
       N18          N  2.7290010 -2.9255929  0.0000000    0.00000       Uiso       1.00
       N19          N  3.5728619 -2.0775640  0.0000000    0.00000       Uiso       1.00
       N20          N  2.9743340 -1.8072270  0.0000000    0.00000       Uiso       1.00
       N21          N  3.4426441 -1.4781569  0.0000000    0.00000       Uiso       1.00
       N22          N  3.4450479 -1.3228580  0.0000000    0.00000       Uiso       1.00
       N23          N  3.5590129 -1.6069629  0.0000000    0.00000       Uiso       1.00
       N24          N  3.7113779 -1.6102901  0.0000000    0.00000       Uiso       1.00
