data_Tp-DANT-COF
_audit_creation_date              0000-00-00
_audit_creation_method            'LanYouShi'
_symmetry_space_group_name_H-M    'P1'
_cell_length_a                    30.1142006
_cell_length_b                    30.1142006
_cell_length_c                    3.4583001
_cell_angle_alpha                 90.0000000
_cell_angle_beta                  90.0000000
_cell_angle_gamma                 120.0000000
loop_
_atom_site_label
_atom_site_type_symbol
_atom_site_fract_x
_atom_site_fract_y
_atom_site_fract_z
_atom_site_U_iso_or_equiv
_atom_site_adp_type
_atom_site_occupancy
        O1          O  0.3024030  0.5670077  0.0000000    0.00000       Uiso       1.00
        O2          O  0.4329909  0.7353939  0.0000000    0.00000       Uiso       1.00
        O3          O  0.2646046  0.6975955  0.0000000    0.00000       Uiso       1.00
        O4          O  0.6975955  0.4329909  0.0000000    0.00000       Uiso       1.00
        O5          O  0.5670076  0.2646046  0.0000000    0.00000       Uiso       1.00
        O6          O  0.7353939  0.3024030  0.0000000    0.00000       Uiso       1.00
        N1          N  0.4008784  0.5871956  0.0000000    0.00000       Uiso       1.00
        N2          N  0.4128029  0.8136813  0.0000000    0.00000       Uiso       1.00
        N3          N  0.1863173  0.5991201  0.0000000    0.00000       Uiso       1.00
        N4          N  0.5991201  0.4128029  0.0000000    0.00000       Uiso       1.00
        N5          N  0.5871957  0.1863173  0.0000000    0.00000       Uiso       1.00
        N6          N  0.8136812  0.4008784  0.0000000    0.00000       Uiso       1.00
        C1          C  0.3173611  0.6141168  0.0000000    0.00000       Uiso       1.00
        C2          C  0.3858816  0.7032428  0.0000000    0.00000       Uiso       1.00
        C3          C  0.2967558  0.6826374  0.0000000    0.00000       Uiso       1.00
        C4          C  0.6826374  0.3858817  0.0000000    0.00000       Uiso       1.00
        C5          C  0.6141169  0.2967557  0.0000000    0.00000       Uiso       1.00
        C6          C  0.7032428  0.3173611  0.0000000    0.00000       Uiso       1.00
        C7          C  0.4096656  0.6360409  0.0000000    0.00000       Uiso       1.00
        C8          C  0.3639576  0.7736232  0.0000000    0.00000       Uiso       1.00
        C9          C  0.2263753  0.5903329  0.0000000    0.00000       Uiso       1.00
       C10          C  0.5903329  0.3639576  0.0000000    0.00000       Uiso       1.00
       C11          C  0.6360409  0.2263753  0.0000000    0.00000       Uiso       1.00
       C12          C  0.7736232  0.4096656  0.0000000    0.00000       Uiso       1.00
        N7          N  0.4310553  0.5669286  0.0000000    0.00000       Uiso       1.00
        N8          N  0.4330699  0.8641253  0.0000000    0.00000       Uiso       1.00
        N9          N  0.1358733  0.5689433  0.0000000    0.00000       Uiso       1.00
       N10          N  0.5689432  0.4330699  0.0000000    0.00000       Uiso       1.00
       N11          N  0.5669286  0.1358733  0.0000000    0.00000       Uiso       1.00
       N12          N  0.8641253  0.4310553  0.0000000    0.00000       Uiso       1.00
       C13          C  0.4839298  0.5935382  0.0000000    0.00000       Uiso       1.00
       C14          C  0.4064603  0.8903902  0.0000000    0.00000       Uiso       1.00
       C15          C  0.1096083  0.5160686  0.0000000    0.00000       Uiso       1.00
       C16          C  0.5160686  0.4064603  0.0000000    0.00000       Uiso       1.00
       C17          C  0.5935382  0.1096083  0.0000000    0.00000       Uiso       1.00
       C18          C  0.8903902  0.4839299  0.0000000    0.00000       Uiso       1.00
       C19          C  0.5126265  0.5678721  0.0000000    0.00000       Uiso       1.00
       C20          C  0.4321264  0.9447529  0.0000000    0.00000       Uiso       1.00
       C21          C  0.0552457  0.4873721  0.0000000    0.00000       Uiso       1.00
       C22          C  0.4873721  0.4321264  0.0000000    0.00000       Uiso       1.00
       C23          C  0.5678721  0.0552456  0.0000000    0.00000       Uiso       1.00
       C24          C  0.9447529  0.5126265  0.0000000    0.00000       Uiso       1.00
       C25          C  0.4861341  0.5135032  0.0000000    0.00000       Uiso       1.00
       C26          C  0.4864953  0.9726295  0.0000000    0.00000       Uiso       1.00
       C27          C  0.0273691  0.5138644  0.0000000    0.00000       Uiso       1.00
       C28          C  0.5138644  0.4864953  0.0000000    0.00000       Uiso       1.00
       C29          C  0.5135032  0.0273691  0.0000000    0.00000       Uiso       1.00
       C30          C  0.9726294  0.4861341  0.0000000    0.00000       Uiso       1.00
       C31          C  0.4317946  0.4861693  0.0000000    0.00000       Uiso       1.00
       C32          C  0.5138292  0.9456238  0.0000000    0.00000       Uiso       1.00
       C33          C  0.0543748  0.5682040  0.0000000    0.00000       Uiso       1.00
       C34          C  0.5682040  0.5138292  0.0000000    0.00000       Uiso       1.00
       C35          C  0.4861693  0.0543748  0.0000000    0.00000       Uiso       1.00
       C36          C  0.9456238  0.4317945  0.0000000    0.00000       Uiso       1.00
       C37          C  0.4054086  0.5140932  0.0000000    0.00000       Uiso       1.00
       C38          C  0.4859054  0.8913139  0.0000000    0.00000       Uiso       1.00
       C39          C  0.1086846  0.5945900  0.0000000    0.00000       Uiso       1.00
       C40          C  0.5945900  0.4859054  0.0000000    0.00000       Uiso       1.00
       C41          C  0.5140932  0.1086846  0.0000000    0.00000       Uiso       1.00
       C42          C  0.8913139  0.4054085  0.0000000    0.00000       Uiso       1.00
       C43          C  0.3709222  0.6502383  0.0000000    0.00000       Uiso       1.00
       C44          C  0.3497602  0.7206824  0.0000000    0.00000       Uiso       1.00
       C45          C  0.2793161  0.6290764  0.0000000    0.00000       Uiso       1.00
       C46          C  0.6290764  0.3497602  0.0000000    0.00000       Uiso       1.00
       C47          C  0.6502383  0.2793161  0.0000000    0.00000       Uiso       1.00
       C48          C  0.7206824  0.3709221  0.0000000    0.00000       Uiso       1.00
        H1          H  0.4466857  0.6647270  0.0000000    0.00000       Uiso       1.00
        H2          H  0.3352715  0.7819571  0.0000000    0.00000       Uiso       1.00
        H3          H  0.2180414  0.5533128  0.0000000    0.00000       Uiso       1.00
        H4          H  0.5533129  0.3352715  0.0000000    0.00000       Uiso       1.00
        H5          H  0.6647271  0.2180414  0.0000000    0.00000       Uiso       1.00
        H6          H  0.7819571  0.4466856  0.0000000    0.00000       Uiso       1.00
        O7          O  0.5089131  0.6415557  0.0000000    0.00000       Uiso       1.00
        O8          O  0.3584428  0.8673559  0.0000000    0.00000       Uiso       1.00
        O9          O  0.1326426  0.4910854  0.0000000    0.00000       Uiso       1.00
       O10          O  0.4910854  0.3584428  0.0000000    0.00000       Uiso       1.00
       O11          O  0.6415557  0.1326426  0.0000000    0.00000       Uiso       1.00
       O12          O  0.8673559  0.5089131  0.0000000    0.00000       Uiso       1.00
        H7          H  0.3650250  0.5623637  0.0000000    0.00000       Uiso       1.00
        H8          H  0.4376349  0.8026598  0.0000000    0.00000       Uiso       1.00
        H9          H  0.1973387  0.6349736  0.0000000    0.00000       Uiso       1.00
       H10          H  0.6349736  0.4376349  0.0000000    0.00000       Uiso       1.00
       H11          H  0.5623637  0.1973387  0.0000000    0.00000       Uiso       1.00
       H12          H  0.8026598  0.3650250  0.0000000    0.00000       Uiso       1.00
       O13          O  0.3571675  0.4888510  0.0000000    0.00000       Uiso       1.00
       O14          O  0.5111476  0.8683150  0.0000000    0.00000       Uiso       1.00
       O15          O  0.1316835  0.6428310  0.0000000    0.00000       Uiso       1.00
       O16          O  0.6428310  0.5111475  0.0000000    0.00000       Uiso       1.00
       O17          O  0.4888510  0.1316835  0.0000000    0.00000       Uiso       1.00
       O18          O  0.8683150  0.3571675  0.0000000    0.00000       Uiso       1.00
       C49          C  0.9723631  0.5668550  0.0000000    0.00000       Uiso       1.00
       C50          C  0.0260984  0.5941063  0.0000000    0.00000       Uiso       1.00
       H13          H  0.9536819  0.5873842  0.0000000    0.00000       Uiso       1.00
       H14          H  0.0442770  0.6332987  0.0000000    0.00000       Uiso       1.00
       C51          C  0.4331435  0.4055081  0.0000000    0.00000       Uiso       1.00
       C52          C  0.4058922  0.4319906  0.0000000    0.00000       Uiso       1.00
       H15          H  0.4126143  0.3662977  0.0000000    0.00000       Uiso       1.00
       H16          H  0.3666998  0.4109769  0.0000000    0.00000       Uiso       1.00
       C53          C  0.5944904  0.0276354  0.0000000    0.00000       Uiso       1.00
       C54          C  0.5680079  0.9739001  0.0000000    0.00000       Uiso       1.00
       H17          H  0.6337008  0.0463166  0.0000000    0.00000       Uiso       1.00
       H18          H  0.5890217  0.9557215  0.0000000    0.00000       Uiso       1.00
       C55          C  0.0276354  0.4331435  0.0000000    0.00000       Uiso       1.00
       C56          C  0.9739001  0.4058922  0.0000000    0.00000       Uiso       1.00
       H19          H  0.0463166  0.4126143  0.0000000    0.00000       Uiso       1.00
       H20          H  0.9557216  0.3666999  0.0000000    0.00000       Uiso       1.00
       C57          C  0.5668550  0.5944904  0.0000000    0.00000       Uiso       1.00
       C58          C  0.5941064  0.5680079  0.0000000    0.00000       Uiso       1.00
       H21          H  0.5873842  0.6337008  0.0000000    0.00000       Uiso       1.00
       H22          H  0.6332987  0.5890217  0.0000000    0.00000       Uiso       1.00
       C59          C  0.4055081  0.9723631  0.0000000    0.00000       Uiso       1.00
       C60          C  0.4319907  0.0260984  0.0000000    0.00000       Uiso       1.00
       H23          H  0.3662977  0.9536819  0.0000000    0.00000       Uiso       1.00
       H24          H  0.4109769  0.0442770  0.0000000    0.00000       Uiso       1.00
