data_Tp-Por-COF-AA-38
_audit_creation_date              0000-00-00
_audit_creation_method            'LanYouShi'
_symmetry_space_group_name_H-M    'P1'
_cell_length_a                    52.2000008
_cell_length_b                    52.2000008
_cell_length_c                    3.8000000
_cell_angle_alpha                 90.0000000
_cell_angle_beta                  90.0000000
_cell_angle_gamma                 120.0000000
loop_
_atom_site_label
_atom_site_type_symbol
_atom_site_fract_x
_atom_site_fract_y
_atom_site_fract_z
_atom_site_U_iso_or_equiv
_atom_site_adp_type
_atom_site_occupancy
        C1          C  0.9195500  0.9472400 -0.0139400    0.00000       Uiso       1.00
        N1          N  0.6990500  0.8762200 -0.0139100    0.00000       Uiso       1.00
        C2          C  0.7286300  0.8884100  0.0206100    0.00000       Uiso       1.00
        C3          C  0.7420000  0.9188300  0.0659700    0.00000       Uiso       1.00
        C4          C  0.7197700  0.9256900  0.0533100    0.00000       Uiso       1.00
        C5          C  0.8238800  0.9315000 -0.2134900    0.00000       Uiso       1.00
        C6          C  0.7930000  0.9158800 -0.2116800    0.00000       Uiso       1.00
        C7          C  0.9456999  0.0004600 -0.0309800    0.00000       Uiso       1.00
        C8          C  0.9728900  0.0007900 -0.0241800    0.00000       Uiso       1.00
        C9          C  0.4139000  0.7207300  0.0334700    0.00000       Uiso       1.00
        N2          N  0.6344400  0.7915900  0.0327500    0.00000       Uiso       1.00
       C10          C  0.6394500  0.7689400  0.0887700    0.00000       Uiso       1.00
       C11          C  0.6048900  0.7796400  0.0686200    0.00000       Uiso       1.00
       C12          C  0.5915500  0.7496500  0.1512900    0.00000       Uiso       1.00
       C13          C  0.6137900  0.7427700  0.1614700    0.00000       Uiso       1.00
       C14          C  0.5094300  0.7353199 -0.1593100    0.00000       Uiso       1.00
       C15          C  0.5403200  0.7508900 -0.1634300    0.00000       Uiso       1.00
        O1          O  0.4421100  0.7451300  0.0485300    0.00000       Uiso       1.00
       C16          C  0.3875800  0.6675100  0.0082500    0.00000       Uiso       1.00
       C17          C  0.3604100  0.6672500  0.0200500    0.00000       Uiso       1.00
       C18          C  0.4138700  0.6944700  0.0103800    0.00000       Uiso       1.00
       C19          C  0.6394300  0.8715900 -0.0630800    0.00000       Uiso       1.00
       C20          C  0.6048600  0.8263600 -0.0373500    0.00000       Uiso       1.00
       C21          C  0.5914800  0.8429999 -0.1176500    0.00000       Uiso       1.00
       C22          C  0.6137200  0.8720999 -0.1313800    0.00000       Uiso       1.00
       C23          C  0.5095100  0.7753199  0.1994800    0.00000       Uiso       1.00
       C24          C  0.5404100  0.7906100  0.2014400    0.00000       Uiso       1.00
       C25          C  0.3876500  0.7214699  0.0357500    0.00000       Uiso       1.00
       C26          C  0.3604500  0.6946000  0.0241100    0.00000       Uiso       1.00
       C27          C  0.9194900  0.9734699 -0.0304200    0.00000       Uiso       1.00
        N3          N  0.6990399  0.8238599  0.0266600    0.00000       Uiso       1.00
       C28          C  0.6939900  0.7959500  0.0092000    0.00000       Uiso       1.00
       C29          C  0.7285799  0.8411899 -0.0149900    0.00000       Uiso       1.00
       C30          C  0.7418500  0.8240799 -0.0629200    0.00000       Uiso       1.00
       C31          C  0.7196200  0.7950000 -0.0444900    0.00000       Uiso       1.00
       C32          C  0.8242600  0.8935400  0.1890000    0.00000       Uiso       1.00
       C33          C  0.7933699  0.8782699  0.1971200    0.00000       Uiso       1.00
        O2          O  0.8913100  0.9696600 -0.0422700    0.00000       Uiso       1.00
       C34          C  0.9458300  0.9465799 -0.0143400    0.00000       Uiso       1.00
       C35          C  0.6667400  0.8972400 -0.0376700    0.00000       Uiso       1.00
       C36          C  0.6667200  0.7705600  0.0581500    0.00000       Uiso       1.00
       C37          C  0.8395100  0.9202400 -0.0147400    0.00000       Uiso       1.00
        B1          B  0.8737600  0.9374000 -0.0195500    0.00000       Uiso       1.00
       C38          C  0.5895000  0.7953100  0.0166600    0.00000       Uiso       1.00
       C39          C  0.4940100  0.7475900  0.0205800    0.00000       Uiso       1.00
       C40          C  0.5562900  0.7787100  0.0184100    0.00000       Uiso       1.00
        B2          B  0.4597100  0.7304700  0.0215100    0.00000       Uiso       1.00
       C41          C  0.6940600  0.8991100  0.0000000    0.00000       Uiso       1.00
        O3          O  0.8914200  0.9228000  0.0000000    0.00000       Uiso       1.00
        N4          N  0.6344400  0.8439500  0.0000000    0.00000       Uiso       1.00
        O4          O  0.4420500  0.6982100  0.0000000    0.00000       Uiso       1.00
       C42          C  0.7440000  0.8724900  0.0000000    0.00000       Uiso       1.00
       C43          C  0.7772300  0.8891000  0.0000000    0.00000       Uiso       1.00
       C44          C  0.9728400  0.9736300 -0.0241800    0.00000       Uiso       1.00
        H1          H  0.3877729  0.6457829 -0.0028557    0.00000       Uiso       1.00
        H2          H  0.3882529  0.7435891  0.0469132    0.00000       Uiso       1.00
        H3          H  0.2150067  0.7119548  0.3396068    0.00000       Uiso       1.00
        H4          H  0.1874761  0.7405372  0.3480527    0.00000       Uiso       1.00
        H5          H  0.2869460  0.7837210 -0.2985873    0.00000       Uiso       1.00
        H6          H  0.2584404  0.8113155 -0.3108149    0.00000       Uiso       1.00
        H7          H  0.7669715  0.9326280  0.1036874    0.00000       Uiso       1.00
        H8          H  0.7252315  0.9496154  0.0851138    0.00000       Uiso       1.00
        H9          H  0.8363062  0.9528558 -0.3712155    0.00000       Uiso       1.00
       H10          H  0.7802097  0.9240649 -0.3751865    0.00000       Uiso       1.00
       H11          H  0.9454386  0.0221631 -0.0368356    0.00000       Uiso       1.00
       H12          H  0.5666274  0.7361940  0.1949583    0.00000       Uiso       1.00
       H13          H  0.6147175  0.7217375  0.2132570    0.00000       Uiso       1.00
       H14          H  0.5665118  0.8315490 -0.1572666    0.00000       Uiso       1.00
       H15          H  0.6082209  0.8902264 -0.1903971    0.00000       Uiso       1.00
       H16          H  0.7667519  0.8351983 -0.1065530    0.00000       Uiso       1.00
       H17          H  0.7187416  0.7727793 -0.0635889    0.00000       Uiso       1.00
       H18          H  0.8370433  0.8847922  0.3426942    0.00000       Uiso       1.00
       H19          H  0.7809484  0.8572112  0.3600985    0.00000       Uiso       1.00
       H20          H  0.9452940  0.9244847 -0.0068139    0.00000       Uiso       1.00
       H21          H  0.6682135  0.9197675 -0.0471872    0.00000       Uiso       1.00
       H22          H  0.6682413  0.7495472  0.0727153    0.00000       Uiso       1.00
       C45          C  0.0527600  0.9723100 -0.0139400    0.00000       Uiso       1.00
        N5          N  0.1237800  0.8228300 -0.0139100    0.00000       Uiso       1.00
       C46          C  0.1115900  0.8402200  0.0206100    0.00000       Uiso       1.00
       C47          C  0.0811700  0.8231700  0.0659700    0.00000       Uiso       1.00
       C48          C  0.0743100  0.7940800  0.0533100    0.00000       Uiso       1.00
       C49          C  0.0685000  0.8923800 -0.2134900    0.00000       Uiso       1.00
       C50          C  0.0841200  0.8771200 -0.2116800    0.00000       Uiso       1.00
       C51          C  0.9995400  0.9452400 -0.0309800    0.00000       Uiso       1.00
       C52          C  0.9992100  0.9721000 -0.0241800    0.00000       Uiso       1.00
       C53          C  0.2792700  0.6931700  0.0334700    0.00000       Uiso       1.00
        N6          N  0.2084100  0.8428500  0.0327500    0.00000       Uiso       1.00
       C54          C  0.2310600  0.8705100  0.0887700    0.00000       Uiso       1.00
       C55          C  0.2203600  0.8252499  0.0686200    0.00000       Uiso       1.00
       C56          C  0.2503500  0.8419000  0.1512900    0.00000       Uiso       1.00
       C57          C  0.2572300  0.8710200  0.1614700    0.00000       Uiso       1.00
       C58          C  0.2646800  0.7741100 -0.1593100    0.00000       Uiso       1.00
       C59          C  0.2491100  0.7894300 -0.1634300    0.00000       Uiso       1.00
        O5          O  0.2548700  0.6969800  0.0485300    0.00000       Uiso       1.00
       C60          C  0.3324900  0.7200700  0.0082500    0.00000       Uiso       1.00
       C61          C  0.3327500  0.6931601  0.0200500    0.00000       Uiso       1.00
       C62          C  0.3055300  0.7194000  0.0103800    0.00000       Uiso       1.00
       C63          C  0.1284100  0.7678399 -0.0630800    0.00000       Uiso       1.00
       C64          C  0.1736400  0.7785000 -0.0373500    0.00000       Uiso       1.00
       C65          C  0.1570000  0.7484800 -0.1176500    0.00000       Uiso       1.00
       C66          C  0.1279000  0.7416200 -0.1313800    0.00000       Uiso       1.00
       C67          C  0.2246800  0.7341899  0.1994800    0.00000       Uiso       1.00
       C68          C  0.2093900  0.7498000  0.2014400    0.00000       Uiso       1.00
       C69          C  0.2785300  0.6661800  0.0357500    0.00000       Uiso       1.00
       C70          C  0.3054000  0.6658500  0.0241100    0.00000       Uiso       1.00
       C71          C  0.0265300  0.9460199 -0.0304200    0.00000       Uiso       1.00
        N7          N  0.1761400  0.8751799  0.0266600    0.00000       Uiso       1.00
       C72          C  0.2040500  0.8980399  0.0092000    0.00000       Uiso       1.00
       C73          C  0.1588100  0.8873900 -0.0149900    0.00000       Uiso       1.00
       C74          C  0.1759200  0.9177700 -0.0629200    0.00000       Uiso       1.00
       C75          C  0.2050000  0.9246200 -0.0444900    0.00000       Uiso       1.00
       C76          C  0.1064600  0.9307199  0.1890000    0.00000       Uiso       1.00
       C77          C  0.1217300  0.9151000  0.1971200    0.00000       Uiso       1.00
        O6          O  0.0303400  0.9216499 -0.0422700    0.00000       Uiso       1.00
       C78          C  0.0534200  0.9992500 -0.0143400    0.00000       Uiso       1.00
       C79          C  0.1027600  0.7695000 -0.0376700    0.00000       Uiso       1.00
       C80          C  0.2294400  0.8961599  0.0581500    0.00000       Uiso       1.00
       C81          C  0.0797600  0.9192700 -0.0147400    0.00000       Uiso       1.00
        B3          B  0.0626000  0.9363600 -0.0195500    0.00000       Uiso       1.00
       C82          C  0.2046899  0.7941899  0.0166600    0.00000       Uiso       1.00
       C83          C  0.2524100  0.7464200  0.0205800    0.00000       Uiso       1.00
       C84          C  0.2212900  0.7775799  0.0184100    0.00000       Uiso       1.00
        B4          B  0.2695300  0.7292400  0.0215100    0.00000       Uiso       1.00
       C85          C  0.1008900  0.7949500  0.0000000    0.00000       Uiso       1.00
        O7          O  0.0772000  0.9686200  0.0000000    0.00000       Uiso       1.00
        N8          N  0.1560500  0.7904900  0.0000000    0.00000       Uiso       1.00
        O8          O  0.3017900  0.7438400  0.0000000    0.00000       Uiso       1.00
       C86          C  0.1275100  0.8715100  0.0000000    0.00000       Uiso       1.00
       C87          C  0.1109000  0.8881300  0.0000000    0.00000       Uiso       1.00
       C88          C  0.0263700  0.9992100 -0.0241800    0.00000       Uiso       1.00
       H23          H  0.3542171  0.7419900 -0.0028557    0.00000       Uiso       1.00
       H24          H  0.2564109  0.6446638  0.0469132    0.00000       Uiso       1.00
       H25          H  0.2880452  0.5030519  0.3396068    0.00000       Uiso       1.00
       H26          H  0.2594628  0.4469389  0.3480527    0.00000       Uiso       1.00
       H27          H  0.2162789  0.5032250 -0.2985873    0.00000       Uiso       1.00
       H28          H  0.1886846  0.4471249 -0.3108149    0.00000       Uiso       1.00
       H29          H  0.0673719  0.8343434  0.1036874    0.00000       Uiso       1.00
       H30          H  0.0503846  0.7756162  0.0851138    0.00000       Uiso       1.00
       H31          H  0.0471441  0.8834504 -0.3712155    0.00000       Uiso       1.00
       H32          H  0.0759351  0.8561448 -0.3751865    0.00000       Uiso       1.00
       H33          H  0.9778369  0.9232755 -0.0368356    0.00000       Uiso       1.00
       H34          H  0.2638060  0.8304334  0.1949583    0.00000       Uiso       1.00
       H35          H  0.2782624  0.8929799  0.2132570    0.00000       Uiso       1.00
       H36          H  0.1684510  0.7349628 -0.1572666    0.00000       Uiso       1.00
       H37          H  0.1097735  0.7179945 -0.1903971    0.00000       Uiso       1.00
       H38          H  0.1648017  0.9315537 -0.1065530    0.00000       Uiso       1.00
       H39          H  0.2272207  0.9459623 -0.0635889    0.00000       Uiso       1.00
       H40          H  0.1152078  0.9522511  0.3426942    0.00000       Uiso       1.00
       H41          H  0.1427888  0.9237372  0.3600985    0.00000       Uiso       1.00
       H42          H  0.0755153  0.0208093 -0.0068139    0.00000       Uiso       1.00
       H43          H  0.0802325  0.7484460 -0.0471872    0.00000       Uiso       1.00
       H44          H  0.2504528  0.9186941  0.0727153    0.00000       Uiso       1.00
       C89          C  0.0276900  0.0804500 -0.0139400    0.00000       Uiso       1.00
        N9          N  0.1771700  0.3009500 -0.0139100    0.00000       Uiso       1.00
       C90          C  0.1597800  0.2713700  0.0206100    0.00000       Uiso       1.00
       C91          C  0.1768300  0.2580000  0.0659700    0.00000       Uiso       1.00
       C92          C  0.2059200  0.2802300  0.0533100    0.00000       Uiso       1.00
       C93          C  0.1076200  0.1761200 -0.2134900    0.00000       Uiso       1.00
       C94          C  0.1228800  0.2070000 -0.2116800    0.00000       Uiso       1.00
       C95          C  0.0547600  0.0543000 -0.0309800    0.00000       Uiso       1.00
       C96          C  0.0279000  0.0271100 -0.0241800    0.00000       Uiso       1.00
       C97          C  0.3068300  0.5861000  0.0334700    0.00000       Uiso       1.00
       N10          N  0.1571500  0.3655600  0.0327500    0.00000       Uiso       1.00
       C98          C  0.1294899  0.3605500  0.0887700    0.00000       Uiso       1.00
       C99          C  0.1747500  0.3951100  0.0686200    0.00000       Uiso       1.00
      C100          C  0.1581000  0.4084500  0.1512900    0.00000       Uiso       1.00
      C101          C  0.1289800  0.3862100  0.1614700    0.00000       Uiso       1.00
      C102          C  0.2258900  0.4905700 -0.1593100    0.00000       Uiso       1.00
      C103          C  0.2105700  0.4596800 -0.1634300    0.00000       Uiso       1.00
        O9          O  0.3030200  0.5578900  0.0485300    0.00000       Uiso       1.00
      C104          C  0.2799300  0.6124200  0.0082500    0.00000       Uiso       1.00
      C105          C  0.3068400  0.6395900  0.0200500    0.00000       Uiso       1.00
      C106          C  0.2806000  0.5861300  0.0103800    0.00000       Uiso       1.00
      C107          C  0.2321600  0.3605700 -0.0630800    0.00000       Uiso       1.00
      C108          C  0.2215000  0.3951400 -0.0373500    0.00000       Uiso       1.00
      C109          C  0.2515200  0.4085200 -0.1176500    0.00000       Uiso       1.00
      C110          C  0.2583800  0.3862800 -0.1313800    0.00000       Uiso       1.00
      C111          C  0.2658100  0.4904900  0.1994800    0.00000       Uiso       1.00
      C112          C  0.2502000  0.4595900  0.2014400    0.00000       Uiso       1.00
      C113          C  0.3338200  0.6123500  0.0357500    0.00000       Uiso       1.00
      C114          C  0.3341500  0.6395500  0.0241100    0.00000       Uiso       1.00
      C115          C  0.0539800  0.0805100 -0.0304200    0.00000       Uiso       1.00
       N11          N  0.1248200  0.3009600  0.0266600    0.00000       Uiso       1.00
      C116          C  0.1019600  0.3060100  0.0092000    0.00000       Uiso       1.00
      C117          C  0.1126100  0.2714200 -0.0149900    0.00000       Uiso       1.00
      C118          C  0.0822300  0.2581500 -0.0629200    0.00000       Uiso       1.00
      C119          C  0.0753800  0.2803800 -0.0444900    0.00000       Uiso       1.00
      C120          C  0.0692800  0.1757400  0.1890000    0.00000       Uiso       1.00
      C121          C  0.0849000  0.2066300  0.1971200    0.00000       Uiso       1.00
       O10          O  0.0783500  0.1086900 -0.0422700    0.00000       Uiso       1.00
      C122          C  0.0007500  0.0541700 -0.0143400    0.00000       Uiso       1.00
      C123          C  0.2305000  0.3332600 -0.0376700    0.00000       Uiso       1.00
      C124          C  0.1038400  0.3332800  0.0581500    0.00000       Uiso       1.00
      C125          C  0.0807300  0.1604900 -0.0147400    0.00000       Uiso       1.00
        B5          B  0.0636400  0.1262400 -0.0195500    0.00000       Uiso       1.00
      C126          C  0.2058100  0.4105000  0.0166600    0.00000       Uiso       1.00
      C127          C  0.2535800  0.5059900  0.0205800    0.00000       Uiso       1.00
      C128          C  0.2224200  0.4437100  0.0184100    0.00000       Uiso       1.00
        B6          B  0.2707600  0.5402900  0.0215100    0.00000       Uiso       1.00
      C129          C  0.2050500  0.3059400  0.0000000    0.00000       Uiso       1.00
       O11          O  0.0313800  0.1085800  0.0000000    0.00000       Uiso       1.00
       N12          N  0.2095100  0.3655600  0.0000000    0.00000       Uiso       1.00
       O12          O  0.2561600  0.5579500  0.0000000    0.00000       Uiso       1.00
      C130          C  0.1284900  0.2560000  0.0000000    0.00000       Uiso       1.00
      C131          C  0.1118700  0.2227700  0.0000000    0.00000       Uiso       1.00
      C132          C  0.0007900  0.0271600 -0.0241800    0.00000       Uiso       1.00
       H45          H  0.2580100  0.6122271 -0.0028557    0.00000       Uiso       1.00
       H46          H  0.3553362  0.6117471  0.0469132    0.00000       Uiso       1.00
       H47          H  0.4969481  0.7849933  0.3396068    0.00000       Uiso       1.00
       H48          H  0.5530611  0.8125238  0.3480527    0.00000       Uiso       1.00
       H49          H  0.4967750  0.7130540 -0.2985873    0.00000       Uiso       1.00
       H50          H  0.5528750  0.7415596 -0.3108149    0.00000       Uiso       1.00
       H51          H  0.1656565  0.2330284  0.1036874    0.00000       Uiso       1.00
       H52          H  0.2243839  0.2747684  0.0851138    0.00000       Uiso       1.00
       H53          H  0.1165496  0.1636937 -0.3712155    0.00000       Uiso       1.00
       H54          H  0.1438552  0.2197903 -0.3751865    0.00000       Uiso       1.00
       H55          H  0.0767245  0.0545614 -0.0368356    0.00000       Uiso       1.00
       H56          H  0.1695666  0.4333726  0.1949583    0.00000       Uiso       1.00
       H57          H  0.1070201  0.3852825  0.2132570    0.00000       Uiso       1.00
       H58          H  0.2650373  0.4334882 -0.1572666    0.00000       Uiso       1.00
       H59          H  0.2820055  0.3917791 -0.1903971    0.00000       Uiso       1.00
       H60          H  0.0684463  0.2332480 -0.1065530    0.00000       Uiso       1.00
       H61          H  0.0540377  0.2812584 -0.0635889    0.00000       Uiso       1.00
       H62          H  0.0477489  0.1629567  0.3426942    0.00000       Uiso       1.00
       H63          H  0.0762628  0.2190515  0.3600985    0.00000       Uiso       1.00
       H64          H  0.9791907  0.0547060 -0.0068139    0.00000       Uiso       1.00
       H65          H  0.2515540  0.3317865 -0.0471872    0.00000       Uiso       1.00
       H66          H  0.0813059  0.3317587  0.0727153    0.00000       Uiso       1.00
       H67          H  0.1720506  0.8523837  0.0678782    0.00000       Uiso       1.00
       H68          H  0.1658752  0.8142415  0.0685010    0.00000       Uiso       1.00
       H69          H  0.6848895  0.8519163  0.9549558    0.00000       Uiso       1.00
       H70          H  0.6531878  0.8139818 -0.0272801    0.00000       Uiso       1.00
       H71          H  0.1607941  0.3468122 -0.0272801    0.00000       Uiso       1.00
       H72          H  0.1670268  0.3151105  0.9549558    0.00000       Uiso       1.00
