data_Tp-Por-COF-AB
_audit_creation_date              0000-00-00
_audit_creation_method            'LanYouShi'
_symmetry_space_group_name_H-M    'P1'
_cell_length_a                    52.2000008
_cell_length_b                    52.2000008
_cell_length_c                    6.5000000
_cell_angle_alpha                 90.0000000
_cell_angle_beta                  90.0000000
_cell_angle_gamma                 120.0000000
loop_
_atom_site_label
_atom_site_type_symbol
_atom_site_fract_x
_atom_site_fract_y
_atom_site_fract_z
_atom_site_U_iso_or_equiv
_atom_site_adp_type
_atom_site_occupancy
        C1          C  0.9186918  0.9465732  0.0325677    0.00000       Uiso       1.00
        N1          N  0.6991075  0.8643106  0.1977466    0.00000       Uiso       1.00
        C2          C  0.7286797  0.8777162  0.1732544    0.00000       Uiso       1.00
        C3          C  0.7432583  0.8975702  0.3483092    0.00000       Uiso       1.00
        C4          C  0.7221142  0.8956203  0.4704785    0.00000       Uiso       1.00
        C5          C  0.8228672  0.9345841 -0.0219643    0.00000       Uiso       1.00
        C6          C  0.7919584  0.9191467 -0.0282532    0.00000       Uiso       1.00
        C7          C  0.9450058  0.9995040  0.0270914    0.00000       Uiso       1.00
        C8          C  0.9726836  0.0001952  0.0302944    0.00000       Uiso       1.00
        C9          C  0.4146666  0.7198298 -0.0245071    0.00000       Uiso       1.00
        N2          N  0.6342536  0.8017544 -0.1829595    0.00000       Uiso       1.00
       C10          C  0.6392171  0.7916338 -0.3605144    0.00000       Uiso       1.00
       C11          C  0.6046843  0.7883543 -0.1584593    0.00000       Uiso       1.00
       C12          C  0.5900883  0.7685564 -0.3336582    0.00000       Uiso       1.00
       C13          C  0.6112269  0.7705442 -0.4560974    0.00000       Uiso       1.00
       C14          C  0.5110311  0.7768146 -0.0577377    0.00000       Uiso       1.00
       C15          C  0.5419558  0.7920844 -0.0546202    0.00000       Uiso       1.00
        O1          O  0.4429623  0.7441521 -0.0331994    0.00000       Uiso       1.00
       C16          C  0.3881395  0.6669529  0.0018655    0.00000       Uiso       1.00
       C17          C  0.3605781  0.6663679 -0.0123415    0.00000       Uiso       1.00
       C18          C  0.4144456  0.6937307 -0.0038085    0.00000       Uiso       1.00
       C19          C  0.6387872  0.8466055  0.3693609    0.00000       Uiso       1.00
       C20          C  0.6046013  0.8139425  0.1685336    0.00000       Uiso       1.00
       C21          C  0.5904461  0.8213332  0.3189331    0.00000       Uiso       1.00
       C22          C  0.6121268  0.8420081  0.4453517    0.00000       Uiso       1.00
       C23          C  0.5104647  0.7318941  0.0454441    0.00000       Uiso       1.00
       C24          C  0.5413805  0.7472711  0.0511632    0.00000       Uiso       1.00
       C25          C  0.3885877  0.7207335 -0.0311481    0.00000       Uiso       1.00
       C26          C  0.3608058  0.6939858 -0.0175799    0.00000       Uiso       1.00
       C27          C  0.9188075  0.9727000  0.0271512    0.00000       Uiso       1.00
        N3          N  0.6992673  0.8369591 -0.1893613    0.00000       Uiso       1.00
       C28          C  0.6945685  0.8195754 -0.3553171    0.00000       Uiso       1.00
       C29          C  0.7287714  0.8521746 -0.1541532    0.00000       Uiso       1.00
       C30          C  0.7429229  0.8449978 -0.3059573    0.00000       Uiso       1.00
       C31          C  0.7212346  0.8243586 -0.4324882    0.00000       Uiso       1.00
       C32          C  0.8224567  0.8891790  0.0639744    0.00000       Uiso       1.00
       C33          C  0.7915357  0.8738536  0.0610696    0.00000       Uiso       1.00
        O2          O  0.8906785  0.9691414  0.0218711    0.00000       Uiso       1.00
       C34          C  0.9447720  0.9457403  0.0336850    0.00000       Uiso       1.00
       C35          C  0.6663033  0.8665867  0.4563820    0.00000       Uiso       1.00
       C36          C  0.6670434  0.7995936 -0.4422438    0.00000       Uiso       1.00
       C37          C  0.8382844  0.9196489  0.0231085    0.00000       Uiso       1.00
        B1          B  0.8728586  0.9368358  0.0274027    0.00000       Uiso       1.00
       C38          C  0.5900409  0.7935879  0.0054783    0.00000       Uiso       1.00
       C39          C  0.4951106  0.7466129 -0.0081307    0.00000       Uiso       1.00
       C40          C  0.5572804  0.7774352  0.0011861    0.00000       Uiso       1.00
        B2          B  0.4604999  0.7294834 -0.0120862    0.00000       Uiso       1.00
       C41          C  0.6941330  0.8744872  0.3750235    0.00000       Uiso       1.00
        O3          O  0.8904656  0.9221318  0.0349443    0.00000       Uiso       1.00
        N4          N  0.6340911  0.8290529  0.2043943    0.00000       Uiso       1.00
        O4          O  0.4425603  0.6972837  0.0073399    0.00000       Uiso       1.00
       C42          C  0.7433403  0.8724911  0.0092335    0.00000       Uiso       1.00
       C43          C  0.7761204  0.8887079  0.0133794    0.00000       Uiso       1.00
       C44          C  0.9725646  0.9726056  0.0311797    0.00000       Uiso       1.00
        H1          H  0.7667359  0.9110581  0.3774358    0.00000       Uiso       1.00
        H2          H  0.7253346  0.9071770  0.6148289    0.00000       Uiso       1.00
        H3          H  0.8346490  0.9581010 -0.0541652    0.00000       Uiso       1.00
        H4          H  0.7803297  0.9308941 -0.0648726    0.00000       Uiso       1.00
        H5          H  0.9426595  0.0188041  0.0225230    0.00000       Uiso       1.00
        H6          H  0.5666038  0.7550775 -0.3625709    0.00000       Uiso       1.00
        H7          H  0.6079994  0.7590374 -0.6006780    0.00000       Uiso       1.00
        H8          H  0.4996353  0.7885869 -0.1004072    0.00000       Uiso       1.00
        H9          H  0.5539888  0.8153335 -0.0948543    0.00000       Uiso       1.00
       H10          H  0.3901078  0.6475284  0.0207995    0.00000       Uiso       1.00
       H11          H  0.5669395  0.8127889  0.3364943    0.00000       Uiso       1.00
       H12          H  0.6087304  0.8525004  0.5779856    0.00000       Uiso       1.00
       H13          H  0.4986279  0.7085955  0.0845197    0.00000       Uiso       1.00
       H14          H  0.5529620  0.7357038  0.0942384    0.00000       Uiso       1.00
       H15          H  0.3908995  0.7422753 -0.0498026    0.00000       Uiso       1.00
       H16          H  0.6833627  0.8398033 -0.1154725    0.00000       Uiso       1.00
       H17          H  0.7664340  0.8536952 -0.3247502    0.00000       Uiso       1.00
       H18          H  0.7246335  0.8140326 -0.5660935    0.00000       Uiso       1.00
       H19          H  0.8339174  0.8772348  0.0998466    0.00000       Uiso       1.00
       H20          H  0.7795739  0.8503934  0.0949241    0.00000       Uiso       1.00
       H21          H  0.9422476  0.9240196  0.0378942    0.00000       Uiso       1.00
       H22          H  0.6660690  0.8776476  0.5969384    0.00000       Uiso       1.00
       H23          H  0.6672692  0.7886279 -0.5833098    0.00000       Uiso       1.00
       H24          H  0.6499572  0.8259777  0.1319889    0.00000       Uiso       1.00
       C45          C  0.0534268  0.9721186  0.0325677    0.00000       Uiso       1.00
        N5          N  0.1356894  0.8347969  0.1977466    0.00000       Uiso       1.00
       C46          C  0.1222838  0.8509635  0.1732544    0.00000       Uiso       1.00
       C47          C  0.1024298  0.8456881  0.3483092    0.00000       Uiso       1.00
       C48          C  0.1043797  0.8264939  0.4704785    0.00000       Uiso       1.00
       C49          C  0.0654159  0.8882831 -0.0219643    0.00000       Uiso       1.00
       C50          C  0.0808533  0.8728117 -0.0282532    0.00000       Uiso       1.00
       C51          C  0.0004960  0.9455018  0.0270914    0.00000       Uiso       1.00
       C52          C  0.9998048  0.9724884  0.0302944    0.00000       Uiso       1.00
       C53          C  0.2801702  0.6948369 -0.0245071    0.00000       Uiso       1.00
        N6          N  0.1982456  0.8324991 -0.1829595    0.00000       Uiso       1.00
       C54          C  0.2083662  0.8475834 -0.3605144    0.00000       Uiso       1.00
       C55          C  0.2116457  0.8163300 -0.1584593    0.00000       Uiso       1.00
       C56          C  0.2314435  0.8215319 -0.3336582    0.00000       Uiso       1.00
       C57          C  0.2294557  0.8406826 -0.4560974    0.00000       Uiso       1.00
       C58          C  0.2231853  0.7342165 -0.0577377    0.00000       Uiso       1.00
       C59          C  0.2079156  0.7498714 -0.0546202    0.00000       Uiso       1.00
        O5          O  0.2558479  0.6988101 -0.0331994    0.00000       Uiso       1.00
       C60          C  0.3330471  0.7211866  0.0018655    0.00000       Uiso       1.00
       C61          C  0.3336321  0.6942102 -0.0123415    0.00000       Uiso       1.00
       C62          C  0.3062693  0.7207150 -0.0038085    0.00000       Uiso       1.00
       C63          C  0.1533945  0.7921817  0.3693609    0.00000       Uiso       1.00
       C64          C  0.1860575  0.7906588  0.1685336    0.00000       Uiso       1.00
       C65          C  0.1786667  0.7691128  0.3189331    0.00000       Uiso       1.00
       C66          C  0.1579919  0.7701187  0.4453517    0.00000       Uiso       1.00
       C67          C  0.2681059  0.7785706  0.0454441    0.00000       Uiso       1.00
       C68          C  0.2527289  0.7941095  0.0511632    0.00000       Uiso       1.00
       C69          C  0.2792665  0.6678542 -0.0311481    0.00000       Uiso       1.00
       C70          C  0.3060142  0.6668200 -0.0175799    0.00000       Uiso       1.00
       C71          C  0.0273000  0.9461075  0.0271512    0.00000       Uiso       1.00
        N7          N  0.1630409  0.8623083 -0.1893613    0.00000       Uiso       1.00
       C72          C  0.1804246  0.8749931 -0.3553171    0.00000       Uiso       1.00
       C73          C  0.1478254  0.8765967 -0.1541532    0.00000       Uiso       1.00
       C74          C  0.1550021  0.8979250 -0.3059573    0.00000       Uiso       1.00
       C75          C  0.1756414  0.8968760 -0.4324882    0.00000       Uiso       1.00
       C76          C  0.1108210  0.9332777  0.0639744    0.00000       Uiso       1.00
       C77          C  0.1261465  0.9176822  0.0610696    0.00000       Uiso       1.00
        O6          O  0.0308586  0.9215370  0.0218711    0.00000       Uiso       1.00
       C78          C  0.0542597  0.9990317  0.0336850    0.00000       Uiso       1.00
       C79          C  0.1334133  0.7997166  0.4563820    0.00000       Uiso       1.00
       C80          C  0.2004063  0.8674498 -0.4422438    0.00000       Uiso       1.00
       C81          C  0.0803512  0.9186355  0.0231085    0.00000       Uiso       1.00
        B3          B  0.0631642  0.9360228  0.0274027    0.00000       Uiso       1.00
       C82          C  0.2064120  0.7964529  0.0054783    0.00000       Uiso       1.00
       C83          C  0.2533871  0.7484977 -0.0081307    0.00000       Uiso       1.00
       C84          C  0.2225648  0.7798452  0.0011861    0.00000       Uiso       1.00
        B4          B  0.2705166  0.7310165 -0.0120862    0.00000       Uiso       1.00
       C85          C  0.1255128  0.8196459  0.3750235    0.00000       Uiso       1.00
        O7          O  0.0778682  0.9683338  0.0349443    0.00000       Uiso       1.00
        N8          N  0.1709471  0.8050382  0.2043943    0.00000       Uiso       1.00
        O8          O  0.3027163  0.7452766  0.0073399    0.00000       Uiso       1.00
       C86          C  0.1275089  0.8708493  0.0092335    0.00000       Uiso       1.00
       C87          C  0.1112921  0.8874124  0.0133794    0.00000       Uiso       1.00
       C88          C  0.0273944  0.9999589  0.0311797    0.00000       Uiso       1.00
       H25          H  0.0889420  0.8556778  0.3774358    0.00000       Uiso       1.00
       H26          H  0.0928231  0.8181576  0.6148289    0.00000       Uiso       1.00
       H27          H  0.0418990  0.8765480 -0.0541652    0.00000       Uiso       1.00
       H28          H  0.0691059  0.8494357 -0.0648726    0.00000       Uiso       1.00
       H29          H  0.9811959  0.9238553  0.0225230    0.00000       Uiso       1.00
       H30          H  0.2449225  0.8115262 -0.3625709    0.00000       Uiso       1.00
       H31          H  0.2409626  0.8489620 -0.6006780    0.00000       Uiso       1.00
       H32          H  0.2114131  0.7110485 -0.1004072    0.00000       Uiso       1.00
       H33          H  0.1846665  0.7386554 -0.0948543    0.00000       Uiso       1.00
       H34          H  0.3524716  0.7425794  0.0207995    0.00000       Uiso       1.00
       H35          H  0.1872111  0.7541506  0.3364943    0.00000       Uiso       1.00
       H36          H  0.1474996  0.7562300  0.5779856    0.00000       Uiso       1.00
       H37          H  0.2914045  0.7900324  0.0845197    0.00000       Uiso       1.00
       H38          H  0.2642962  0.8172582  0.0942384    0.00000       Uiso       1.00
       H39          H  0.2577247  0.6486242 -0.0498026    0.00000       Uiso       1.00
       H40          H  0.1601967  0.8435593 -0.1154725    0.00000       Uiso       1.00
       H41          H  0.1463048  0.9127387 -0.3247502    0.00000       Uiso       1.00
       H42          H  0.1859674  0.9106009 -0.5660935    0.00000       Uiso       1.00
       H43          H  0.1227652  0.9566826  0.0998466    0.00000       Uiso       1.00
       H44          H  0.1496067  0.9291805  0.0949241    0.00000       Uiso       1.00
       H45          H  0.0759804  0.0182279  0.0378942    0.00000       Uiso       1.00
       H46          H  0.1223524  0.7884214  0.5969384    0.00000       Uiso       1.00
       H47          H  0.2113721  0.8786413 -0.5833098    0.00000       Uiso       1.00
       H48          H  0.1740222  0.8239794  0.1319889    0.00000       Uiso       1.00
       C89          C  0.0278814  0.0813082  0.0325677    0.00000       Uiso       1.00
        N9          N  0.1652030  0.3008924  0.1977466    0.00000       Uiso       1.00
       C90          C  0.1490365  0.2713203  0.1732544    0.00000       Uiso       1.00
       C91          C  0.1543119  0.2567417  0.3483092    0.00000       Uiso       1.00
       C92          C  0.1735061  0.2778858  0.4704785    0.00000       Uiso       1.00
       C93          C  0.1117169  0.1771328 -0.0219643    0.00000       Uiso       1.00
       C94          C  0.1271883  0.2080416 -0.0282532    0.00000       Uiso       1.00
       C95          C  0.0544982  0.0549942  0.0270914    0.00000       Uiso       1.00
       C96          C  0.0275116  0.0273164  0.0302944    0.00000       Uiso       1.00
       C97          C  0.3051632  0.5853334 -0.0245071    0.00000       Uiso       1.00
       N10          N  0.1675009  0.3657464 -0.1829595    0.00000       Uiso       1.00
       C98          C  0.1524167  0.3607829 -0.3605144    0.00000       Uiso       1.00
       C99          C  0.1836700  0.3953157 -0.1584593    0.00000       Uiso       1.00
      C100          C  0.1784681  0.4099116 -0.3336582    0.00000       Uiso       1.00
      C101          C  0.1593173  0.3887731 -0.4560974    0.00000       Uiso       1.00
      C102          C  0.2657835  0.4889688 -0.0577377    0.00000       Uiso       1.00
      C103          C  0.2501286  0.4580442 -0.0546202    0.00000       Uiso       1.00
        O9          O  0.3011898  0.5570378 -0.0331994    0.00000       Uiso       1.00
      C104          C  0.2788134  0.6118605  0.0018655    0.00000       Uiso       1.00
      C105          C  0.3057898  0.6394218 -0.0123415    0.00000       Uiso       1.00
      C106          C  0.2792850  0.5855543 -0.0038085    0.00000       Uiso       1.00
      C107          C  0.2078183  0.3612128  0.3693609    0.00000       Uiso       1.00
      C108          C  0.2093412  0.3953986  0.1685336    0.00000       Uiso       1.00
      C109          C  0.2308872  0.4095539  0.3189331    0.00000       Uiso       1.00
      C110          C  0.2298814  0.3878733  0.4453517    0.00000       Uiso       1.00
      C111          C  0.2214294  0.4895353  0.0454441    0.00000       Uiso       1.00
      C112          C  0.2058906  0.4586195  0.0511632    0.00000       Uiso       1.00
      C113          C  0.3321458  0.6114122 -0.0311481    0.00000       Uiso       1.00
      C114          C  0.3331800  0.6391942 -0.0175799    0.00000       Uiso       1.00
      C115          C  0.0538925  0.0811925  0.0271512    0.00000       Uiso       1.00
       N11          N  0.1376917  0.3007326 -0.1893613    0.00000       Uiso       1.00
      C116          C  0.1250069  0.3054315 -0.3553171    0.00000       Uiso       1.00
      C117          C  0.1234032  0.2712286 -0.1541532    0.00000       Uiso       1.00
      C118          C  0.1020750  0.2570771 -0.3059573    0.00000       Uiso       1.00
      C119          C  0.1031240  0.2787654 -0.4324882    0.00000       Uiso       1.00
      C120          C  0.0667223  0.1775433  0.0639744    0.00000       Uiso       1.00
      C121          C  0.0823178  0.2084642  0.0610696    0.00000       Uiso       1.00
       O10          O  0.0784629  0.1093215  0.0218711    0.00000       Uiso       1.00
      C122          C  0.0009683  0.0552280  0.0336850    0.00000       Uiso       1.00
      C123          C  0.2002834  0.3336967  0.4563820    0.00000       Uiso       1.00
      C124          C  0.1325502  0.3329566 -0.4422438    0.00000       Uiso       1.00
      C125          C  0.0813645  0.1617156  0.0231085    0.00000       Uiso       1.00
        B5          B  0.0639772  0.1271413  0.0274027    0.00000       Uiso       1.00
      C126          C  0.2035470  0.4099591  0.0054783    0.00000       Uiso       1.00
      C127          C  0.2515023  0.5048894 -0.0081307    0.00000       Uiso       1.00
      C128          C  0.2201548  0.4427195  0.0011861    0.00000       Uiso       1.00
        B6          B  0.2689835  0.5395001 -0.0120862    0.00000       Uiso       1.00
      C129          C  0.1803541  0.3058669  0.3750235    0.00000       Uiso       1.00
       O11          O  0.0316661  0.1095343  0.0349443    0.00000       Uiso       1.00
       N12          N  0.1949617  0.3659089  0.2043943    0.00000       Uiso       1.00
       O12          O  0.2547233  0.5574396  0.0073399    0.00000       Uiso       1.00
      C130          C  0.1291507  0.2566597  0.0092335    0.00000       Uiso       1.00
      C131          C  0.1125875  0.2238796  0.0133794    0.00000       Uiso       1.00
      C132          C  0.0000411  0.0274354  0.0311797    0.00000       Uiso       1.00
       H49          H  0.1443222  0.2332641  0.3774358    0.00000       Uiso       1.00
       H50          H  0.1818423  0.2746654  0.6148289    0.00000       Uiso       1.00
       H51          H  0.1234520  0.1653510 -0.0541652    0.00000       Uiso       1.00
       H52          H  0.1505644  0.2196703 -0.0648726    0.00000       Uiso       1.00
       H53          H  0.0761446  0.0573405  0.0225230    0.00000       Uiso       1.00
       H54          H  0.1884737  0.4333962 -0.3625709    0.00000       Uiso       1.00
       H55          H  0.1510380  0.3920006 -0.6006780    0.00000       Uiso       1.00
       H56          H  0.2889515  0.5003647 -0.1004072    0.00000       Uiso       1.00
       H57          H  0.2613446  0.4460112 -0.0948543    0.00000       Uiso       1.00
       H58          H  0.2574206  0.6098922  0.0207995    0.00000       Uiso       1.00
       H59          H  0.2458494  0.4330604  0.3364943    0.00000       Uiso       1.00
       H60          H  0.2437700  0.3912696  0.5779856    0.00000       Uiso       1.00
       H61          H  0.2099676  0.5013720  0.0845197    0.00000       Uiso       1.00
       H62          H  0.1827418  0.4470380  0.0942384    0.00000       Uiso       1.00
       H63          H  0.3513757  0.6091004 -0.0498026    0.00000       Uiso       1.00
       H64          H  0.1564406  0.3166373 -0.1154725    0.00000       Uiso       1.00
       H65          H  0.0872612  0.2335661 -0.3247502    0.00000       Uiso       1.00
       H66          H  0.0893991  0.2753665 -0.5660935    0.00000       Uiso       1.00
       H67          H  0.0433173  0.1660825  0.0998466    0.00000       Uiso       1.00
       H68          H  0.0708194  0.2204261  0.0949241    0.00000       Uiso       1.00
       H69          H  0.9817721  0.0577524  0.0378942    0.00000       Uiso       1.00
       H70          H  0.2115786  0.3339310  0.5969384    0.00000       Uiso       1.00
       H71          H  0.1213587  0.3327308 -0.5833098    0.00000       Uiso       1.00
       H72          H  0.1760205  0.3500428  0.1319889    0.00000       Uiso       1.00
      C133          C  0.0813082  0.0534268  0.5325677    0.00000       Uiso       1.00
       N13          N  0.3008924  0.1356894  0.6977466    0.00000       Uiso       1.00
      C134          C  0.2713203  0.1222838  0.6732544    0.00000       Uiso       1.00
      C135          C  0.2567417  0.1024298  0.8483092    0.00000       Uiso       1.00
      C136          C  0.2778858  0.1043797  0.9704785    0.00000       Uiso       1.00
      C137          C  0.1771328  0.0654159  0.4780357    0.00000       Uiso       1.00
      C138          C  0.2080416  0.0808533  0.4717468    0.00000       Uiso       1.00
      C139          C  0.0549942  0.0004960  0.5270914    0.00000       Uiso       1.00
      C140          C  0.0273164  0.9998047  0.5302944    0.00000       Uiso       1.00
      C141          C  0.5853334  0.2801702  0.4754929    0.00000       Uiso       1.00
       N14          N  0.3657464  0.1982455  0.3170405    0.00000       Uiso       1.00
      C142          C  0.3607828  0.2083662  0.1394856    0.00000       Uiso       1.00
      C143          C  0.3953157  0.2116457  0.3415407    0.00000       Uiso       1.00
      C144          C  0.4099116  0.2314435  0.1663418    0.00000       Uiso       1.00
      C145          C  0.3887731  0.2294557  0.0439026    0.00000       Uiso       1.00
      C146          C  0.4889688  0.2231853  0.4422623    0.00000       Uiso       1.00
      C147          C  0.4580442  0.2079156  0.4453798    0.00000       Uiso       1.00
       O13          O  0.5570377  0.2558479  0.4668006    0.00000       Uiso       1.00
      C148          C  0.6118605  0.3330471  0.5018655    0.00000       Uiso       1.00
      C149          C  0.6394218  0.3336321  0.4876585    0.00000       Uiso       1.00
      C150          C  0.5855544  0.3062693  0.4961915    0.00000       Uiso       1.00
      C151          C  0.3612128  0.1533945  0.8693609    0.00000       Uiso       1.00
      C152          C  0.3953987  0.1860575  0.6685336    0.00000       Uiso       1.00
      C153          C  0.4095539  0.1786668  0.8189331    0.00000       Uiso       1.00
      C154          C  0.3878733  0.1579919  0.9453517    0.00000       Uiso       1.00
      C155          C  0.4895353  0.2681059  0.5454441    0.00000       Uiso       1.00
      C156          C  0.4586195  0.2527289  0.5511633    0.00000       Uiso       1.00
      C157          C  0.6114122  0.2792665  0.4688519    0.00000       Uiso       1.00
      C158          C  0.6391942  0.3060142  0.4824201    0.00000       Uiso       1.00
      C159          C  0.0811925  0.0273000  0.5271512    0.00000       Uiso       1.00
       N15          N  0.3007326  0.1630409  0.3106387    0.00000       Uiso       1.00
      C160          C  0.3054315  0.1804246  0.1446830    0.00000       Uiso       1.00
      C161          C  0.2712286  0.1478254  0.3458468    0.00000       Uiso       1.00
      C162          C  0.2570771  0.1550021  0.1940427    0.00000       Uiso       1.00
      C163          C  0.2787654  0.1756414  0.0675118    0.00000       Uiso       1.00
      C164          C  0.1775433  0.1108210  0.5639743    0.00000       Uiso       1.00
      C165          C  0.2084642  0.1261464  0.5610696    0.00000       Uiso       1.00
       O14          O  0.1093215  0.0308586  0.5218711    0.00000       Uiso       1.00
      C166          C  0.0552280  0.0542597  0.5336850    0.00000       Uiso       1.00
      C167          C  0.3336967  0.1334133  0.9563819    0.00000       Uiso       1.00
      C168          C  0.3329566  0.2004064  0.0577562    0.00000       Uiso       1.00
      C169          C  0.1617156  0.0803512  0.5231085    0.00000       Uiso       1.00
        B7          B  0.1271414  0.0631641  0.5274027    0.00000       Uiso       1.00
      C170          C  0.4099591  0.2064120  0.5054783    0.00000       Uiso       1.00
      C171          C  0.5048894  0.2533871  0.4918693    0.00000       Uiso       1.00
      C172          C  0.4427195  0.2225648  0.5011861    0.00000       Uiso       1.00
        B8          B  0.5395001  0.2705166  0.4879138    0.00000       Uiso       1.00
      C173          C  0.3058669  0.1255128  0.8750235    0.00000       Uiso       1.00
       O15          O  0.1095343  0.0778682  0.5349442    0.00000       Uiso       1.00
       N16          N  0.3659089  0.1709471  0.7043943    0.00000       Uiso       1.00
       O16          O  0.5574396  0.3027163  0.5073399    0.00000       Uiso       1.00
      C174          C  0.2566597  0.1275089  0.5092335    0.00000       Uiso       1.00
      C175          C  0.2238796  0.1112921  0.5133795    0.00000       Uiso       1.00
      C176          C  0.0274354  0.0273944  0.5311797    0.00000       Uiso       1.00
       H73          H  0.2332642  0.0889419  0.8774358    0.00000       Uiso       1.00
       H74          H  0.2746654  0.0928231  1.1148289    0.00000       Uiso       1.00
       H75          H  0.1653510  0.0418990  0.4458348    0.00000       Uiso       1.00
       H76          H  0.2196703  0.0691059  0.4351274    0.00000       Uiso       1.00
       H77          H  0.0573405  0.9811959  0.5225230    0.00000       Uiso       1.00
       H78          H  0.4333962  0.2449225  0.1374291    0.00000       Uiso       1.00
       H79          H  0.3920006  0.2409626 -0.1006780    0.00000       Uiso       1.00
       H80          H  0.5003647  0.2114131  0.3995928    0.00000       Uiso       1.00
       H81          H  0.4460112  0.1846665  0.4051457    0.00000       Uiso       1.00
       H82          H  0.6098922  0.3524716  0.5207995    0.00000       Uiso       1.00
       H83          H  0.4330604  0.1872111  0.8364943    0.00000       Uiso       1.00
       H84          H  0.3912696  0.1474996  1.0779856    0.00000       Uiso       1.00
       H85          H  0.5013720  0.2914045  0.5845197    0.00000       Uiso       1.00
       H86          H  0.4470380  0.2642962  0.5942384    0.00000       Uiso       1.00
       H87          H  0.6091005  0.2577247  0.4501974    0.00000       Uiso       1.00
       H88          H  0.3166373  0.1601967  0.3845275    0.00000       Uiso       1.00
       H89          H  0.2335660  0.1463048  0.1752498    0.00000       Uiso       1.00
       H90          H  0.2753665  0.1859674 -0.0660935    0.00000       Uiso       1.00
       H91          H  0.1660825  0.1227652  0.5998466    0.00000       Uiso       1.00
       H92          H  0.2204261  0.1496067  0.5949241    0.00000       Uiso       1.00
       H93          H  0.0577524  0.0759803  0.5378942    0.00000       Uiso       1.00
       H94          H  0.3339310  0.1223524  1.0969384    0.00000       Uiso       1.00
       H95          H  0.3327308  0.2113721 -0.0833098    0.00000       Uiso       1.00
       H96          H  0.3500428  0.1740222  0.6319889    0.00000       Uiso       1.00
      C177          C  0.9465732  0.0278814  0.5325677    0.00000       Uiso       1.00
       N17          N  0.8643106  0.1652030  0.6977466    0.00000       Uiso       1.00
      C178          C  0.8777162  0.1490365  0.6732544    0.00000       Uiso       1.00
      C179          C  0.8975701  0.1543119  0.8483092    0.00000       Uiso       1.00
      C180          C  0.8956203  0.1735061  0.9704785    0.00000       Uiso       1.00
      C181          C  0.9345841  0.1117169  0.4780357    0.00000       Uiso       1.00
      C182          C  0.9191467  0.1271883  0.4717468    0.00000       Uiso       1.00
      C183          C  0.9995040  0.0544982  0.5270914    0.00000       Uiso       1.00
      C184          C  0.0001952  0.0275116  0.5302944    0.00000       Uiso       1.00
      C185          C  0.7198297  0.3051632  0.4754929    0.00000       Uiso       1.00
       N18          N  0.8017544  0.1675009  0.3170405    0.00000       Uiso       1.00
      C186          C  0.7916338  0.1524167  0.1394856    0.00000       Uiso       1.00
      C187          C  0.7883543  0.1836701  0.3415407    0.00000       Uiso       1.00
      C188          C  0.7685564  0.1784681  0.1663418    0.00000       Uiso       1.00
      C189          C  0.7705442  0.1593173  0.0439026    0.00000       Uiso       1.00
      C190          C  0.7768146  0.2657835  0.4422623    0.00000       Uiso       1.00
      C191          C  0.7920844  0.2501286  0.4453798    0.00000       Uiso       1.00
       O17          O  0.7441521  0.3011898  0.4668006    0.00000       Uiso       1.00
      C192          C  0.6669528  0.2788134  0.5018655    0.00000       Uiso       1.00
      C193          C  0.6663679  0.3057898  0.4876585    0.00000       Uiso       1.00
      C194          C  0.6937307  0.2792850  0.4961915    0.00000       Uiso       1.00
      C195          C  0.8466055  0.2078183  0.8693609    0.00000       Uiso       1.00
      C196          C  0.8139425  0.2093412  0.6685336    0.00000       Uiso       1.00
      C197          C  0.8213332  0.2308872  0.8189331    0.00000       Uiso       1.00
      C198          C  0.8420081  0.2298814  0.9453517    0.00000       Uiso       1.00
      C199          C  0.7318941  0.2214294  0.5454441    0.00000       Uiso       1.00
      C200          C  0.7472711  0.2058906  0.5511633    0.00000       Uiso       1.00
      C201          C  0.7207335  0.3321457  0.4688519    0.00000       Uiso       1.00
      C202          C  0.6939858  0.3331800  0.4824201    0.00000       Uiso       1.00
      C203          C  0.9727000  0.0538925  0.5271512    0.00000       Uiso       1.00
       N19          N  0.8369591  0.1376917  0.3106387    0.00000       Uiso       1.00
      C204          C  0.8195754  0.1250069  0.1446830    0.00000       Uiso       1.00
      C205          C  0.8521746  0.1234032  0.3458468    0.00000       Uiso       1.00
      C206          C  0.8449979  0.1020750  0.1940427    0.00000       Uiso       1.00
      C207          C  0.8243586  0.1031240  0.0675118    0.00000       Uiso       1.00
      C208          C  0.8891789  0.0667223  0.5639743    0.00000       Uiso       1.00
      C209          C  0.8738535  0.0823178  0.5610696    0.00000       Uiso       1.00
       O18          O  0.9691414  0.0784629  0.5218711    0.00000       Uiso       1.00
      C210          C  0.9457403  0.0009683  0.5336850    0.00000       Uiso       1.00
      C211          C  0.8665867  0.2002834  0.9563819    0.00000       Uiso       1.00
      C212          C  0.7995936  0.1325502  0.0577562    0.00000       Uiso       1.00
      C213          C  0.9196488  0.0813645  0.5231085    0.00000       Uiso       1.00
        B9          B  0.9368359  0.0639772  0.5274027    0.00000       Uiso       1.00
      C214          C  0.7935879  0.2035470  0.5054783    0.00000       Uiso       1.00
      C215          C  0.7466129  0.2515024  0.4918693    0.00000       Uiso       1.00
      C216          C  0.7774352  0.2201548  0.5011861    0.00000       Uiso       1.00
       B10          B  0.7294834  0.2689835  0.4879138    0.00000       Uiso       1.00
      C217          C  0.8744872  0.1803541  0.8750235    0.00000       Uiso       1.00
       O19          O  0.9221318  0.0316661  0.5349442    0.00000       Uiso       1.00
       N20          N  0.8290528  0.1949617  0.7043943    0.00000       Uiso       1.00
       O20          O  0.6972837  0.2547233  0.5073399    0.00000       Uiso       1.00
      C218          C  0.8724911  0.1291507  0.5092335    0.00000       Uiso       1.00
      C219          C  0.8887079  0.1125875  0.5133795    0.00000       Uiso       1.00
      C220          C  0.9726056  0.0000411  0.5311797    0.00000       Uiso       1.00
       H97          H  0.9110581  0.1443222  0.8774358    0.00000       Uiso       1.00
       H98          H  0.9071769  0.1818423  1.1148289    0.00000       Uiso       1.00
       H99          H  0.9581010  0.1234520  0.4458348    0.00000       Uiso       1.00
      H100          H  0.9308941  0.1505644  0.4351274    0.00000       Uiso       1.00
      H101          H  0.0188041  0.0761446  0.5225230    0.00000       Uiso       1.00
      H102          H  0.7550775  0.1884737  0.1374291    0.00000       Uiso       1.00
      H103          H  0.7590374  0.1510380 -0.1006780    0.00000       Uiso       1.00
      H104          H  0.7885869  0.2889515  0.3995928    0.00000       Uiso       1.00
      H105          H  0.8153335  0.2613446  0.4051457    0.00000       Uiso       1.00
      H106          H  0.6475284  0.2574206  0.5207995    0.00000       Uiso       1.00
      H107          H  0.8127889  0.2458494  0.8364943    0.00000       Uiso       1.00
      H108          H  0.8525004  0.2437700  1.0779856    0.00000       Uiso       1.00
      H109          H  0.7085955  0.2099676  0.5845197    0.00000       Uiso       1.00
      H110          H  0.7357038  0.1827418  0.5942384    0.00000       Uiso       1.00
      H111          H  0.7422752  0.3513757  0.4501974    0.00000       Uiso       1.00
      H112          H  0.8398033  0.1564406  0.3845275    0.00000       Uiso       1.00
      H113          H  0.8536952  0.0872612  0.1752498    0.00000       Uiso       1.00
      H114          H  0.8140326  0.0893991 -0.0660935    0.00000       Uiso       1.00
      H115          H  0.8772348  0.0433173  0.5998466    0.00000       Uiso       1.00
      H116          H  0.8503933  0.0708194  0.5949241    0.00000       Uiso       1.00
      H117          H  0.9240196  0.9817720  0.5378942    0.00000       Uiso       1.00
      H118          H  0.8776476  0.2115786  1.0969384    0.00000       Uiso       1.00
      H119          H  0.7886279  0.1213587 -0.0833098    0.00000       Uiso       1.00
      H120          H  0.8259777  0.1760205  0.6319889    0.00000       Uiso       1.00
      C221          C  0.9721186  0.9186918  0.5325677    0.00000       Uiso       1.00
       N21          N  0.8347969  0.6991075  0.6977466    0.00000       Uiso       1.00
      C222          C  0.8509635  0.7286797  0.6732544    0.00000       Uiso       1.00
      C223          C  0.8456881  0.7432582  0.8483092    0.00000       Uiso       1.00
      C224          C  0.8264939  0.7221142  0.9704785    0.00000       Uiso       1.00
      C225          C  0.8882831  0.8228672  0.4780357    0.00000       Uiso       1.00
      C226          C  0.8728116  0.7919583  0.4717468    0.00000       Uiso       1.00
      C227          C  0.9455017  0.9450058  0.5270914    0.00000       Uiso       1.00
      C228          C  0.9724883  0.9726835  0.5302944    0.00000       Uiso       1.00
      C229          C  0.6948368  0.4146666  0.4754929    0.00000       Uiso       1.00
       N22          N  0.8324991  0.6342536  0.3170405    0.00000       Uiso       1.00
      C230          C  0.8475833  0.6392171  0.1394856    0.00000       Uiso       1.00
      C231          C  0.8163300  0.6046843  0.3415407    0.00000       Uiso       1.00
      C232          C  0.8215319  0.5900883  0.1663418    0.00000       Uiso       1.00
      C233          C  0.8406826  0.6112269  0.0439026    0.00000       Uiso       1.00
      C234          C  0.7342165  0.5110312  0.4422623    0.00000       Uiso       1.00
      C235          C  0.7498714  0.5419558  0.4453798    0.00000       Uiso       1.00
       O21          O  0.6988101  0.4429622  0.4668006    0.00000       Uiso       1.00
      C236          C  0.7211866  0.3881395  0.5018655    0.00000       Uiso       1.00
      C237          C  0.6942102  0.3605781  0.4876585    0.00000       Uiso       1.00
      C238          C  0.7207150  0.4144457  0.4961915    0.00000       Uiso       1.00
      C239          C  0.7921817  0.6387872  0.8693609    0.00000       Uiso       1.00
      C240          C  0.7906588  0.6046013  0.6685336    0.00000       Uiso       1.00
      C241          C  0.7691128  0.5904461  0.8189331    0.00000       Uiso       1.00
      C242          C  0.7701187  0.6121268  0.9453517    0.00000       Uiso       1.00
      C243          C  0.7785706  0.5104647  0.5454441    0.00000       Uiso       1.00
      C244          C  0.7941094  0.5413805  0.5511633    0.00000       Uiso       1.00
      C245          C  0.6678542  0.3885877  0.4688519    0.00000       Uiso       1.00
      C246          C  0.6668200  0.3608058  0.4824201    0.00000       Uiso       1.00
      C247          C  0.9461074  0.9188074  0.5271512    0.00000       Uiso       1.00
       N23          N  0.8623083  0.6992673  0.3106387    0.00000       Uiso       1.00
      C248          C  0.8749931  0.6945685  0.1446830    0.00000       Uiso       1.00
      C249          C  0.8765968  0.7287714  0.3458468    0.00000       Uiso       1.00
      C250          C  0.8979250  0.7429229  0.1940427    0.00000       Uiso       1.00
      C251          C  0.8968760  0.7212346  0.0675118    0.00000       Uiso       1.00
      C252          C  0.9332777  0.8224567  0.5639743    0.00000       Uiso       1.00
      C253          C  0.9176822  0.7915357  0.5610696    0.00000       Uiso       1.00
       O22          O  0.9215370  0.8906785  0.5218711    0.00000       Uiso       1.00
      C254          C  0.9990317  0.9447720  0.5336850    0.00000       Uiso       1.00
      C255          C  0.7997166  0.6663033  0.9563819    0.00000       Uiso       1.00
      C256          C  0.8674498  0.6670434  0.0577562    0.00000       Uiso       1.00
      C257          C  0.9186355  0.8382844  0.5231085    0.00000       Uiso       1.00
       B11          B  0.9360228  0.8728586  0.5274027    0.00000       Uiso       1.00
      C258          C  0.7964529  0.5900409  0.5054783    0.00000       Uiso       1.00
      C259          C  0.7484976  0.4951106  0.4918693    0.00000       Uiso       1.00
      C260          C  0.7798452  0.5572804  0.5011861    0.00000       Uiso       1.00
       B12          B  0.7310165  0.4604999  0.4879138    0.00000       Uiso       1.00
      C261          C  0.8196459  0.6941330  0.8750235    0.00000       Uiso       1.00
       O23          O  0.9683338  0.8904657  0.5349442    0.00000       Uiso       1.00
       N24          N  0.8050382  0.6340911  0.7043943    0.00000       Uiso       1.00
       O24          O  0.7452767  0.4425603  0.5073399    0.00000       Uiso       1.00
      C262          C  0.8708492  0.7433403  0.5092335    0.00000       Uiso       1.00
      C263          C  0.8874124  0.7761204  0.5133795    0.00000       Uiso       1.00
      C264          C  0.9999589  0.9725646  0.5311797    0.00000       Uiso       1.00
      H121          H  0.8556778  0.7667359  0.8774358    0.00000       Uiso       1.00
      H122          H  0.8181577  0.7253346  1.1148289    0.00000       Uiso       1.00
      H123          H  0.8765480  0.8346490  0.4458348    0.00000       Uiso       1.00
      H124          H  0.8494356  0.7803298  0.4351274    0.00000       Uiso       1.00
      H125          H  0.9238554  0.9426595  0.5225230    0.00000       Uiso       1.00
      H126          H  0.8115262  0.5666038  0.1374291    0.00000       Uiso       1.00
      H127          H  0.8489620  0.6079994 -0.1006780    0.00000       Uiso       1.00
      H128          H  0.7110485  0.4996353  0.3995928    0.00000       Uiso       1.00
      H129          H  0.7386553  0.5539888  0.4051457    0.00000       Uiso       1.00
      H130          H  0.7425794  0.3901078  0.5207995    0.00000       Uiso       1.00
      H131          H  0.7541506  0.5669395  0.8364943    0.00000       Uiso       1.00
      H132          H  0.7562300  0.6087304  1.0779856    0.00000       Uiso       1.00
      H133          H  0.7900324  0.4986279  0.5845197    0.00000       Uiso       1.00
      H134          H  0.8172582  0.5529620  0.5942384    0.00000       Uiso       1.00
      H135          H  0.6486243  0.3908996  0.4501974    0.00000       Uiso       1.00
      H136          H  0.8435594  0.6833627  0.3845275    0.00000       Uiso       1.00
      H137          H  0.9127387  0.7664340  0.1752498    0.00000       Uiso       1.00
      H138          H  0.9106008  0.7246334 -0.0660935    0.00000       Uiso       1.00
      H139          H  0.9566826  0.8339175  0.5998466    0.00000       Uiso       1.00
      H140          H  0.9291806  0.7795739  0.5949241    0.00000       Uiso       1.00
      H141          H  0.0182280  0.9422476  0.5378942    0.00000       Uiso       1.00
      H142          H  0.7884213  0.6660690  1.0969384    0.00000       Uiso       1.00
      H143          H  0.8786414  0.6672692 -0.0833098    0.00000       Uiso       1.00
      H144          H  0.8239794  0.6499572  0.6319889    0.00000       Uiso       1.00
