data_Tp-Stb
_audit_creation_date              0000-00-00
_audit_creation_method            'LanYouShi'
_symmetry_space_group_name_H-M    'P1'
_cell_length_a                    30.5000000
_cell_length_b                    3.4919000
_cell_length_c                    30.5000000
_cell_angle_alpha                 90.0000000
_cell_angle_beta                  120.0000000
_cell_angle_gamma                 90.0000000
loop_
_atom_site_label
_atom_site_type_symbol
_atom_site_fract_x
_atom_site_fract_y
_atom_site_fract_z
_atom_site_U_iso_or_equiv
_atom_site_adp_type
_atom_site_occupancy
        O1          O  0.5856906  0.0000000  0.3387487    0.00000       Uiso       1.00
        N1          N  0.6472728  0.0000000  0.4377773    0.00000       Uiso       1.00
        C1          C  0.6267929  0.0000000  0.3388912    0.00000       Uiso       1.00
        C2          C  0.6879902  0.0000000  0.4350949    0.00000       Uiso       1.00
        C3          C  0.6279968  0.0000000  0.4669817    0.00000       Uiso       1.00
        C4          C  0.6492941  0.0000000  0.5194483    0.00000       Uiso       1.00
        C5          C  0.6147318  0.0000000  0.5370909    0.00000       Uiso       1.00
        C6          C  0.5618045  0.0000000  0.5016237    0.00000       Uiso       1.00
        C7          C  0.5430002  0.0000000  0.4495809    0.00000       Uiso       1.00
        C8          C  0.5757933  0.0000000  0.4328149    0.00000       Uiso       1.00
        C9          C  0.6762532  0.0000000  0.3832204    0.00000       Uiso       1.00
        H1          H  0.7232299  0.0000000  0.4670348    0.00000       Uiso       1.00
        H2          H  0.6875511  0.0000000  0.5431790    0.00000       Uiso       1.00
        H3          H  0.6211103  0.0000000  0.4048010    0.00000       Uiso       1.00
        H4          H  0.5583352  0.0000000  0.3943169    0.00000       Uiso       1.00
        H5          H  0.6281751  0.0000000  0.5752637    0.00000       Uiso       1.00
        H6          H  0.5064445  0.0000000  0.4213304    0.00000       Uiso       1.00
        O2          O  0.7573937  0.0000000  0.4153014    0.00000       Uiso       1.00
        N2          N  0.7954742  0.0000000  0.3543579    0.00000       Uiso       1.00
       C10          C  0.7166455  0.0000000  0.3741450    0.00000       Uiso       1.00
       C11          C  0.7521654  0.0000000  0.3133425    0.00000       Uiso       1.00
       C12          C  0.8441323  0.0000000  0.3748623    0.00000       Uiso       1.00
       C13          C  0.8767486  0.0000000  0.3549613    0.00000       Uiso       1.00
       C14          C  0.9288532  0.0000000  0.3904823    0.00000       Uiso       1.00
       C15          C  0.9425721  0.0000000  0.4420546    0.00000       Uiso       1.00
       C16          C  0.9100657  0.0000000  0.4616904    0.00000       Uiso       1.00
       C17          C  0.8609540  0.0000000  0.4271403    0.00000       Uiso       1.00
       C18          C  0.7117886  0.0000000  0.3247943    0.00000       Uiso       1.00
        H7          H  0.7490181  0.0000000  0.2781728    0.00000       Uiso       1.00
        H8          H  0.8631932  0.0000000  0.3168688    0.00000       Uiso       1.00
        H9          H  0.7881775  0.0000000  0.3801193    0.00000       Uiso       1.00
       H10          H  0.8394577  0.0000000  0.4438559    0.00000       Uiso       1.00
       H11          H  0.9553866  0.0000000  0.3793308    0.00000       Uiso       1.00
       H12          H  0.9193559  0.0000000  0.4996311    0.00000       Uiso       1.00
        O3          O  0.6627547  0.0000000  0.2435738    0.00000       Uiso       1.00
        N3          N  0.5638093  0.0000000  0.2059008    0.00000       Uiso       1.00
       C19          C  0.6623517  0.0000000  0.2843796    0.00000       Uiso       1.00
       C20          C  0.5661662  0.0000000  0.2492333    0.00000       Uiso       1.00
       C21          C  0.5351717  0.0000000  0.1573642    0.00000       Uiso       1.00
       C22          C  0.4825171  0.0000000  0.1257069    0.00000       Uiso       1.00
       C23          C  0.4648331  0.0000000  0.0734200    0.00000       Uiso       1.00
       C24          C  0.5018370  0.0000000  0.0585803    0.00000       Uiso       1.00
       C25          C  0.5541580  0.0000000  0.0901700    0.00000       Uiso       1.00
       C26          C  0.5699252  0.0000000  0.1396522    0.00000       Uiso       1.00
       C27          C  0.6179460  0.0000000  0.2894718    0.00000       Uiso       1.00
       H13          H  0.5341799  0.0000000  0.2524475    0.00000       Uiso       1.00
       H14          H  0.4586388  0.0000000  0.1400525    0.00000       Uiso       1.00
       H15          H  0.5967788  0.0000000  0.2128268    0.00000       Uiso       1.00
       H16          H  0.6082699  0.0000000  0.1607941    0.00000       Uiso       1.00
       H17          H  0.4269511  0.0000000  0.0475308    0.00000       Uiso       1.00
       H18          H  0.5820345  0.0000000  0.0798703    0.00000       Uiso       1.00
       C28          C  0.5265540  0.0000000  0.5166488    0.00000       Uiso       1.00
       C29          C  0.9834106  0.0000000  0.4790472    0.00000       Uiso       1.00
       C30          C  0.4965392  0.0000000  0.0171617    0.00000       Uiso       1.00
        O4          O  0.4143094  0.0000000  0.6612514    0.00000       Uiso       1.00
        N4          N  0.3527272  0.0000000  0.5622227    0.00000       Uiso       1.00
       C31          C  0.3732071  0.0000000  0.6611087    0.00000       Uiso       1.00
       C32          C  0.3120098  0.0000000  0.5649051    0.00000       Uiso       1.00
       C33          C  0.3720032  0.0000000  0.5330182    0.00000       Uiso       1.00
       C34          C  0.3507059  0.0000000  0.4805517    0.00000       Uiso       1.00
       C35          C  0.3852682  0.0000000  0.4629091    0.00000       Uiso       1.00
       C36          C  0.4381955  0.0000000  0.4983763    0.00000       Uiso       1.00
       C37          C  0.4569998  0.0000000  0.5504191    0.00000       Uiso       1.00
       C38          C  0.4242067  0.0000000  0.5671850    0.00000       Uiso       1.00
       C39          C  0.3237467  0.0000000  0.6167795    0.00000       Uiso       1.00
       H19          H  0.2767700  0.0000000  0.5329652    0.00000       Uiso       1.00
       H20          H  0.3124489  0.0000000  0.4568210    0.00000       Uiso       1.00
       H21          H  0.3788897  0.0000000  0.5951990    0.00000       Uiso       1.00
       H22          H  0.4416648  0.0000000  0.6056831    0.00000       Uiso       1.00
       H23          H  0.3718248  0.0000000  0.4247363    0.00000       Uiso       1.00
       H24          H  0.4935555  0.0000000  0.5786696    0.00000       Uiso       1.00
        O5          O  0.2426064  0.0000000  0.5846986    0.00000       Uiso       1.00
        N5          N  0.2045258  0.0000000  0.6456421    0.00000       Uiso       1.00
       C40          C  0.2833545  0.0000000  0.6258550    0.00000       Uiso       1.00
       C41          C  0.2478346  0.0000000  0.6866575    0.00000       Uiso       1.00
       C42          C  0.1558677  0.0000000  0.6251376    0.00000       Uiso       1.00
       C43          C  0.1232514  0.0000000  0.6450387    0.00000       Uiso       1.00
       C44          C  0.0711467  0.0000000  0.6095177    0.00000       Uiso       1.00
       C45          C  0.0574279  0.0000000  0.5579454    0.00000       Uiso       1.00
       C46          C  0.0899343  0.0000000  0.5383096    0.00000       Uiso       1.00
       C47          C  0.1390460  0.0000000  0.5728597    0.00000       Uiso       1.00
       C48          C  0.2882114  0.0000000  0.6752056    0.00000       Uiso       1.00
       H25          H  0.2509820  0.0000000  0.7218272    0.00000       Uiso       1.00
       H26          H  0.1368068  0.0000000  0.6831313    0.00000       Uiso       1.00
       H27          H  0.2118226  0.0000000  0.6198807    0.00000       Uiso       1.00
       H28          H  0.1605423  0.0000000  0.5561441    0.00000       Uiso       1.00
       H29          H  0.0446134  0.0000000  0.6206692    0.00000       Uiso       1.00
       H30          H  0.0806441  0.0000000  0.5003689    0.00000       Uiso       1.00
        O6          O  0.3372453  0.0000000  0.7564262    0.00000       Uiso       1.00
        N6          N  0.4361907  0.0000000  0.7940993    0.00000       Uiso       1.00
       C49          C  0.3376484  0.0000000  0.7156203    0.00000       Uiso       1.00
       C50          C  0.4338338  0.0000000  0.7507667    0.00000       Uiso       1.00
       C51          C  0.4648283  0.0000000  0.8426358    0.00000       Uiso       1.00
       C52          C  0.5174829  0.0000000  0.8742931    0.00000       Uiso       1.00
       C53          C  0.5351669  0.0000000  0.9265800    0.00000       Uiso       1.00
       C54          C  0.4981630  0.0000000  0.9414198    0.00000       Uiso       1.00
       C55          C  0.4458419  0.0000000  0.9098300    0.00000       Uiso       1.00
       C56          C  0.4300748  0.0000000  0.8603478    0.00000       Uiso       1.00
       C57          C  0.3820539  0.0000000  0.7105281    0.00000       Uiso       1.00
       H31          H  0.4658201  0.0000000  0.7475525    0.00000       Uiso       1.00
       H32          H  0.5413612  0.0000000  0.8599474    0.00000       Uiso       1.00
       H33          H  0.4032212  0.0000000  0.7871732    0.00000       Uiso       1.00
       H34          H  0.3917301  0.0000000  0.8392059    0.00000       Uiso       1.00
       H35          H  0.5730489  0.0000000  0.9524692    0.00000       Uiso       1.00
       H36          H  0.4179655  0.0000000  0.9201297    0.00000       Uiso       1.00
       C58          C  0.4734460  0.0000000  0.4833511    0.00000       Uiso       1.00
       C59          C  0.0165895  0.0000000  0.5209528    0.00000       Uiso       1.00
       C60          C  0.5034608  0.0000000  0.9828383    0.00000       Uiso       1.00
       H37          H  0.5430729  0.0000000  0.5547286    0.00000       Uiso       1.00
       H38          H  0.4569271  0.0000000  0.4452714    0.00000       Uiso       1.00
