data_TPB-TP-COF-oxidation
_audit_creation_date              0000-00-00
_audit_creation_method            'LanYouShi'
_symmetry_space_group_name_H-M    'P1'
_cell_length_a                    37.5646019
_cell_length_b                    37.5646019
_cell_length_c                    3.6163001
_cell_angle_alpha                 90.0000000
_cell_angle_beta                  90.0000000
_cell_angle_gamma                 120.0000000
loop_
_atom_site_label
_atom_site_type_symbol
_atom_site_fract_x
_atom_site_fract_y
_atom_site_fract_z
_atom_site_U_iso_or_equiv
_atom_site_adp_type
_atom_site_occupancy
        C1          C  0.8869078  0.4758626  0.5000051    0.00000       Uiso       1.00
        C1          C  0.5241387  0.4110452  0.5000051    0.00000       Uiso       1.00
        C1          C  0.5889560  0.1130935  0.5000051    0.00000       Uiso       1.00
        C1          C  0.1130935  0.5241387  0.5000051    0.00000       Uiso       1.00
        C1          C  0.4758625  0.5889560  0.5000051    0.00000       Uiso       1.00
        C1          C  0.4110452  0.8869078  0.5000051    0.00000       Uiso       1.00
        N1          N  0.9144194  0.4623282  0.5000051    0.00000       Uiso       1.00
         H          H  0.9022654  0.4327702  0.5000051    0.00000       Uiso       1.00
        N1          N  0.5376730  0.4520912  0.5000051    0.00000       Uiso       1.00
         H          H  0.5672311  0.4694952  0.5000051    0.00000       Uiso       1.00
        N1          N  0.5479101  0.0855819  0.5000051    0.00000       Uiso       1.00
         H          H  0.5305060  0.0977358  0.5000051    0.00000       Uiso       1.00
        N1          N  0.0855819  0.5376731  0.5000051    0.00000       Uiso       1.00
         H          H  0.0977358  0.5672311  0.5000051    0.00000       Uiso       1.00
        N1          N  0.4623282  0.5479101  0.5000051    0.00000       Uiso       1.00
         H          H  0.4327702  0.5305060  0.5000051    0.00000       Uiso       1.00
        N1          N  0.4520912  0.9144194  0.5000051    0.00000       Uiso       1.00
         H          H  0.4694952  0.9022654  0.5000051    0.00000       Uiso       1.00
        C1          C  0.9562492  0.4826989  0.5000051    0.00000       Uiso       1.00
        C2          C  0.5173023  0.4735503  0.5000051    0.00000       Uiso       1.00
        C3          C  0.5264509  0.0437520  0.5000051    0.00000       Uiso       1.00
        C4          C  0.0437520  0.5173023  0.5000051    0.00000       Uiso       1.00
        C5          C  0.4826989  0.5264509  0.5000051    0.00000       Uiso       1.00
        C6          C  0.4735503  0.9562492  0.5000051    0.00000       Uiso       1.00
        C7          C  0.9741347  0.4573953  0.5000051    0.00000       Uiso       1.00
        C8          C  0.5426060  0.5167395  0.5000051    0.00000       Uiso       1.00
        C9          C  0.4832618  0.0258665  0.5000051    0.00000       Uiso       1.00
       C10          C  0.0258665  0.5426059  0.5000051    0.00000       Uiso       1.00
       C11          C  0.4573953  0.4832618  0.5000051    0.00000       Uiso       1.00
       C12          C  0.5167394  0.9741347  0.5000051    0.00000       Uiso       1.00
       C13          C  0.0170248  0.4742181  0.5000051    0.00000       Uiso       1.00
       C14          C  0.5257832  0.5428079  0.5000051    0.00000       Uiso       1.00
       C15          C  0.4571933  0.9829765  0.5000051    0.00000       Uiso       1.00
       C16          C  0.9829764  0.5257832  0.5000051    0.00000       Uiso       1.00
       C17          C  0.4742181  0.4571933  0.5000051    0.00000       Uiso       1.00
       C18          C  0.5428079  0.0170248  0.5000051    0.00000       Uiso       1.00
        O1          O  0.8991746  0.5136269  0.5000051    0.00000       Uiso       1.00
        O2          O  0.4863743  0.3855477  0.5000051    0.00000       Uiso       1.00
        O3          O  0.6144536  0.1008267  0.5000051    0.00000       Uiso       1.00
        O4          O  0.1008267  0.4863743  0.5000051    0.00000       Uiso       1.00
        O5          O  0.5136269  0.6144536  0.5000051    0.00000       Uiso       1.00
        O6          O  0.3855477  0.8991746  0.5000051    0.00000       Uiso       1.00
        H1          H  0.9558842  0.4260465  0.5000051    0.00000       Uiso       1.00
        H2          H  0.5739548  0.5298377  0.5000051    0.00000       Uiso       1.00
        H3          H  0.4701635  0.0441170  0.5000051    0.00000       Uiso       1.00
        H4          H  0.0441171  0.5739548  0.5000051    0.00000       Uiso       1.00
        H5          H  0.4260465  0.4701635  0.5000051    0.00000       Uiso       1.00
        H6          H  0.5298377  0.9558842  0.5000051    0.00000       Uiso       1.00
        H7          H  0.0278836  0.4542457  0.5000051    0.00000       Uiso       1.00
        H8          H  0.5457555  0.5736392  0.5000051    0.00000       Uiso       1.00
        H9          H  0.4263621  0.9721176  0.5000051    0.00000       Uiso       1.00
       H10          H  0.9721176  0.5457555  0.5000051    0.00000       Uiso       1.00
       H11          H  0.4542457  0.4263621  0.5000051    0.00000       Uiso       1.00
       H12          H  0.5736392  0.0278836  0.5000051    0.00000       Uiso       1.00
       C25          C  0.1726598  0.5952773  0.5000051    0.00000       Uiso       1.00
       C26          C  0.2153460  0.6226497  0.5000051    0.00000       Uiso       1.00
       C25          C  0.4047239  0.5773837  0.5000051    0.00000       Uiso       1.00
       C26          C  0.3773515  0.5926975  0.5000051    0.00000       Uiso       1.00
       C25          C  0.4226175  0.8273414  0.5000051    0.00000       Uiso       1.00
       C26          C  0.4073037  0.7846552  0.5000051    0.00000       Uiso       1.00
       C25          C  0.8273415  0.4047239  0.5000051    0.00000       Uiso       1.00
       C26          C  0.7846552  0.3773515  0.5000051    0.00000       Uiso       1.00
       C25          C  0.5952773  0.4226176  0.5000051    0.00000       Uiso       1.00
       C26          C  0.6226497  0.4073037  0.5000051    0.00000       Uiso       1.00
       C25          C  0.5773837  0.1726598  0.5000051    0.00000       Uiso       1.00
       C26          C  0.5926976  0.2153460  0.5000051    0.00000       Uiso       1.00
       H19          H  0.1539750  0.6077388  0.5000051    0.00000       Uiso       1.00
       H20          H  0.2234709  0.6527550  0.5000051    0.00000       Uiso       1.00
       H19          H  0.3922625  0.5462375  0.5000051    0.00000       Uiso       1.00
       H20          H  0.3472463  0.5707172  0.5000051    0.00000       Uiso       1.00
       H19          H  0.4537637  0.8460262  0.5000051    0.00000       Uiso       1.00
       H20          H  0.4292841  0.7765304  0.5000051    0.00000       Uiso       1.00
       H19          H  0.8460262  0.3922625  0.5000051    0.00000       Uiso       1.00
       H20          H  0.7765304  0.3472463  0.5000051    0.00000       Uiso       1.00
       H19          H  0.6077388  0.4537637  0.5000051    0.00000       Uiso       1.00
       H20          H  0.6527550  0.4292841  0.5000051    0.00000       Uiso       1.00
       H19          H  0.5462375  0.1539750  0.5000051    0.00000       Uiso       1.00
       H20          H  0.5707171  0.2234709  0.5000051    0.00000       Uiso       1.00
       C31          C  0.3535842  0.8151853  0.5000051    0.00000       Uiso       1.00
       C32          C  0.3385702  0.7725343  0.5000051    0.00000       Uiso       1.00
       C31          C  0.1848159  0.5384001  0.5000051    0.00000       Uiso       1.00
       C32          C  0.2274670  0.5660372  0.5000051    0.00000       Uiso       1.00
       C31          C  0.4616012  0.6464171  0.5000051    0.00000       Uiso       1.00
       C32          C  0.4339640  0.6614310  0.5000051    0.00000       Uiso       1.00
       C31          C  0.6464171  0.1848159  0.5000051    0.00000       Uiso       1.00
       C32          C  0.6614310  0.2274670  0.5000051    0.00000       Uiso       1.00
       C31          C  0.8151854  0.4616012  0.5000051    0.00000       Uiso       1.00
       C32          C  0.7725343  0.4339640  0.5000051    0.00000       Uiso       1.00
       C31          C  0.5384001  0.3535842  0.5000051    0.00000       Uiso       1.00
       C32          C  0.5660372  0.3385702  0.5000051    0.00000       Uiso       1.00
       H25          H  0.3326350  0.8249828  0.5000051    0.00000       Uiso       1.00
       H26          H  0.3075014  0.7550381  0.5000051    0.00000       Uiso       1.00
       H25          H  0.1750184  0.5076534  0.5000051    0.00000       Uiso       1.00
       H26          H  0.2449632  0.5524646  0.5000051    0.00000       Uiso       1.00
       H25          H  0.4923479  0.6673663  0.5000051    0.00000       Uiso       1.00
       H26          H  0.4475366  0.6924999  0.5000051    0.00000       Uiso       1.00
       H25          H  0.6673663  0.1750184  0.5000051    0.00000       Uiso       1.00
       H26          H  0.6924998  0.2449632  0.5000051    0.00000       Uiso       1.00
       H25          H  0.8249828  0.4923479  0.5000051    0.00000       Uiso       1.00
       H26          H  0.7550381  0.4475366  0.5000051    0.00000       Uiso       1.00
       H25          H  0.5076534  0.3326350  0.5000051    0.00000       Uiso       1.00
       H26          H  0.5524646  0.3075014  0.5000051    0.00000       Uiso       1.00
        C1          C  0.3490167  0.7109929  0.5000051    0.00000       Uiso       1.00
        C2          C  0.2890083  0.6380250  0.5000051    0.00000       Uiso       1.00
        C3          C  0.3619763  0.6509845  0.5000051    0.00000       Uiso       1.00
        C4          C  0.3961595  0.8439408  0.5000051    0.00000       Uiso       1.00
        C5          C  0.1560604  0.5522199  0.5000051    0.00000       Uiso       1.00
        C6          C  0.4477813  0.6038418  0.5000051    0.00000       Uiso       1.00
        C7          C  0.3645291  0.7548810  0.5000051    0.00000       Uiso       1.00
        C8          C  0.2451202  0.6096493  0.5000051    0.00000       Uiso       1.00
        C9          C  0.3903519  0.6354721  0.5000051    0.00000       Uiso       1.00
       C10          C  0.3750133  0.6935951  0.5000051    0.00000       Uiso       1.00
       C11          C  0.3064062  0.6814196  0.5000051    0.00000       Uiso       1.00
       C12          C  0.3185818  0.6249880  0.5000051    0.00000       Uiso       1.00
        C1          C  0.6509845  0.2890082  0.5000051    0.00000       Uiso       1.00
        C2          C  0.7109929  0.3619763  0.5000051    0.00000       Uiso       1.00
        C3          C  0.6380250  0.3490167  0.5000051    0.00000       Uiso       1.00
        C4          C  0.6038418  0.1560604  0.5000051    0.00000       Uiso       1.00
        C5          C  0.8439408  0.4477813  0.5000051    0.00000       Uiso       1.00
        C6          C  0.5522199  0.3961595  0.5000051    0.00000       Uiso       1.00
        C7          C  0.6354721  0.2451202  0.5000051    0.00000       Uiso       1.00
        C8          C  0.7548810  0.3903519  0.5000051    0.00000       Uiso       1.00
        C9          C  0.6096494  0.3645292  0.5000051    0.00000       Uiso       1.00
       C10          C  0.6249880  0.3064062  0.5000051    0.00000       Uiso       1.00
       C11          C  0.6935951  0.3185817  0.5000051    0.00000       Uiso       1.00
       C12          C  0.6814195  0.3750133  0.5000051    0.00000       Uiso       1.00
        H1          H  0.2868665  0.6921580  0.5000051    0.00000       Uiso       1.00
        H2          H  0.3078433  0.5947098  0.5000051    0.00000       Uiso       1.00
        H3          H  0.4052914  0.7131346  0.5000051    0.00000       Uiso       1.00
        H1          H  0.7131346  0.3078432  0.5000051    0.00000       Uiso       1.00
        H2          H  0.6921580  0.4052914  0.5000051    0.00000       Uiso       1.00
        H3          H  0.5947099  0.2868666  0.5000051    0.00000       Uiso       1.00
