data_TpBD-2NO2-2
_audit_creation_date              0000-00-00
_audit_creation_method            'LanYouShi'
_symmetry_space_group_name_H-M    'P1'
_cell_length_a                    31.5400009
_cell_length_b                    31.5400009
_cell_length_c                    3.4900000
_cell_angle_alpha                 90.0000000
_cell_angle_beta                  90.0000000
_cell_angle_gamma                 120.0000000
loop_
_atom_site_label
_atom_site_type_symbol
_atom_site_fract_x
_atom_site_fract_y
_atom_site_fract_z
_atom_site_U_iso_or_equiv
_atom_site_adp_type
_atom_site_occupancy
        O1          O  0.3053900  0.5710800  0.0000000    0.00000       Uiso       1.00
        N1          N  0.4052500  0.5930300  0.0000000    0.00000       Uiso       1.00
        C1          C  0.3185700  0.6143900  0.0000000    0.00000       Uiso       1.00
        C2          C  0.4098200  0.6412700  0.0000000    0.00000       Uiso       1.00
        C3          C  0.4387400  0.5730500  0.0000000    0.00000       Uiso       1.00
        C4          C  0.4921400  0.5970199  0.0000000    0.00000       Uiso       1.00
        C5          C  0.5137300  0.5666900  0.0000000    0.00000       Uiso       1.00
        C6          C  0.4872600  0.5151700  0.0000000    0.00000       Uiso       1.00
        C7          C  0.4362400  0.4934000  0.0000000    0.00000       Uiso       1.00
        C8          C  0.4133800  0.5212200  0.0000000    0.00000       Uiso       1.00
        C9          C  0.3720000  0.6514899  0.0000000    0.00000       Uiso       1.00
        H1          H  0.4447800  0.6726999  0.0000000    0.00000       Uiso       1.00
        N2          N  0.5272499  0.6493300  0.0000000    0.00000       Uiso       1.00
        H2          H  0.3693100  0.5651500  0.0000000    0.00000       Uiso       1.00
        H3          H  0.3736800  0.5006800  0.0000000    0.00000       Uiso       1.00
        H4          H  0.5528100  0.5849400  0.0000000    0.00000       Uiso       1.00
        H5          H  0.4120000  0.4543900  0.0000000    0.00000       Uiso       1.00
        O2          O  0.4289199  0.7343099  0.0000000    0.00000       Uiso       1.00
        N3          N  0.4069700  0.8122200  0.0000000    0.00000       Uiso       1.00
       C10          C  0.3856100  0.7041799  0.0000000    0.00000       Uiso       1.00
       C11          C  0.3587300  0.7685500  0.0000000    0.00000       Uiso       1.00
       C12          C  0.4269500  0.8656899  0.0000000    0.00000       Uiso       1.00
       C13          C  0.4029800  0.8951200  0.0000000    0.00000       Uiso       1.00
       C14          C  0.4333099  0.9470399  0.0000000    0.00000       Uiso       1.00
       C15          C  0.4848300  0.9720900  0.0000000    0.00000       Uiso       1.00
       C16          C  0.5066000  0.9428399  0.0000000    0.00000       Uiso       1.00
       C17          C  0.4787799  0.8921599  0.0000000    0.00000       Uiso       1.00
       C18          C  0.3485100  0.7205100  0.0000000    0.00000       Uiso       1.00
        H6          H  0.3273000  0.7720800  0.0000000    0.00000       Uiso       1.00
        N4          N  0.3506700  0.8779199  0.0000000    0.00000       Uiso       1.00
        H7          H  0.4348499  0.8041599  0.0000000    0.00000       Uiso       1.00
        H8          H  0.4993200  0.8730000  0.0000000    0.00000       Uiso       1.00
        H9          H  0.4150600  0.9678700  0.0000000    0.00000       Uiso       1.00
       H10          H  0.5456100  0.9576100  0.0000000    0.00000       Uiso       1.00
        O3          O  0.2656900  0.6946099  0.0000000    0.00000       Uiso       1.00
        N5          N  0.1877800  0.5947500  0.0000000    0.00000       Uiso       1.00
       C19          C  0.2958200  0.6814300  0.0000000    0.00000       Uiso       1.00
       C20          C  0.2314500  0.5901800  0.0000000    0.00000       Uiso       1.00
       C21          C  0.1343100  0.5612600  0.0000000    0.00000       Uiso       1.00
       C22          C  0.1048800  0.5078600  0.0000000    0.00000       Uiso       1.00
       C23          C  0.0529600  0.4862700  0.0000000    0.00000       Uiso       1.00
       C24          C  0.0279100  0.5127400  0.0000000    0.00000       Uiso       1.00
       C25          C  0.0571600  0.5637600  0.0000000    0.00000       Uiso       1.00
       C26          C  0.1078400  0.5866200  0.0000000    0.00000       Uiso       1.00
       C27          C  0.2794900  0.6280000  0.0000000    0.00000       Uiso       1.00
       H11          H  0.2279200  0.5552200  0.0000000    0.00000       Uiso       1.00
        N6          N  0.1220800  0.4727500  0.0000000    0.00000       Uiso       1.00
       H12          H  0.1958400  0.6306900  0.0000000    0.00000       Uiso       1.00
       H13          H  0.1270000  0.6263199  0.0000000    0.00000       Uiso       1.00
       H14          H  0.0321300  0.4471900  0.0000000    0.00000       Uiso       1.00
       H15          H  0.0423900  0.5880000  0.0000000    0.00000       Uiso       1.00
        O4          O  0.6946100  0.4289200  0.0000000    0.00000       Uiso       1.00
        N7          N  0.5947499  0.4069700  0.0000000    0.00000       Uiso       1.00
       C28          C  0.6814300  0.3856100  0.0000000    0.00000       Uiso       1.00
       C29          C  0.5901800  0.3587300  0.0000000    0.00000       Uiso       1.00
       C30          C  0.5612600  0.4269500  0.0000000    0.00000       Uiso       1.00
       C31          C  0.5078600  0.4029800  0.0000000    0.00000       Uiso       1.00
       C32          C  0.4862700  0.4333100  0.0000000    0.00000       Uiso       1.00
       C33          C  0.5127400  0.4848300  0.0000000    0.00000       Uiso       1.00
       C34          C  0.5637600  0.5066000  0.0000000    0.00000       Uiso       1.00
       C35          C  0.5866200  0.4787799  0.0000000    0.00000       Uiso       1.00
       C36          C  0.6280000  0.3485100  0.0000000    0.00000       Uiso       1.00
       H16          H  0.5552200  0.3273000  0.0000000    0.00000       Uiso       1.00
        N8          N  0.4727500  0.3506700  0.0000000    0.00000       Uiso       1.00
       H17          H  0.6306900  0.4348500  0.0000000    0.00000       Uiso       1.00
       H18          H  0.6263200  0.4993200  0.0000000    0.00000       Uiso       1.00
       H19          H  0.4471900  0.4150600  0.0000000    0.00000       Uiso       1.00
       H20          H  0.5879999  0.5456100  0.0000000    0.00000       Uiso       1.00
        O5          O  0.5710800  0.2656900  0.0000000    0.00000       Uiso       1.00
        N9          N  0.5930299  0.1877799  0.0000000    0.00000       Uiso       1.00
       C37          C  0.6143900  0.2958200  0.0000000    0.00000       Uiso       1.00
       C38          C  0.6412700  0.2314500  0.0000000    0.00000       Uiso       1.00
       C39          C  0.5730500  0.1343100  0.0000000    0.00000       Uiso       1.00
       C40          C  0.5970199  0.1048800  0.0000000    0.00000       Uiso       1.00
       C41          C  0.5666900  0.0529600  0.0000000    0.00000       Uiso       1.00
       C42          C  0.5151700  0.0279100  0.0000000    0.00000       Uiso       1.00
       C43          C  0.4934000  0.0571600  0.0000000    0.00000       Uiso       1.00
       C44          C  0.5212200  0.1078400  0.0000000    0.00000       Uiso       1.00
       C45          C  0.6514899  0.2794900  0.0000000    0.00000       Uiso       1.00
       H21          H  0.6727000  0.2279200  0.0000000    0.00000       Uiso       1.00
       N10          N  0.6493300  0.1220800  0.0000000    0.00000       Uiso       1.00
       H22          H  0.5651500  0.1958400  0.0000000    0.00000       Uiso       1.00
       H23          H  0.5006800  0.1270000  0.0000000    0.00000       Uiso       1.00
       H24          H  0.5849400  0.0321300  0.0000000    0.00000       Uiso       1.00
       H25          H  0.4543900  0.0423900  0.0000000    0.00000       Uiso       1.00
        O6          O  0.7343099  0.3053900  0.0000000    0.00000       Uiso       1.00
       N11          N  0.8122200  0.4052500  0.0000000    0.00000       Uiso       1.00
       C46          C  0.7041799  0.3185700  0.0000000    0.00000       Uiso       1.00
       C47          C  0.7685500  0.4098200  0.0000000    0.00000       Uiso       1.00
       C48          C  0.8656899  0.4387400  0.0000000    0.00000       Uiso       1.00
       C49          C  0.8951200  0.4921400  0.0000000    0.00000       Uiso       1.00
       C50          C  0.9470399  0.5137300  0.0000000    0.00000       Uiso       1.00
       C51          C  0.9720900  0.4872600  0.0000000    0.00000       Uiso       1.00
       C52          C  0.9428399  0.4362400  0.0000000    0.00000       Uiso       1.00
       C53          C  0.8921599  0.4133800  0.0000000    0.00000       Uiso       1.00
       C54          C  0.7205100  0.3720000  0.0000000    0.00000       Uiso       1.00
       H26          H  0.7720800  0.4447800  0.0000000    0.00000       Uiso       1.00
       N12          N  0.8779199  0.5272500  0.0000000    0.00000       Uiso       1.00
       H27          H  0.8041599  0.3693100  0.0000000    0.00000       Uiso       1.00
       H28          H  0.8730000  0.3736800  0.0000000    0.00000       Uiso       1.00
       H29          H  0.9678699  0.5528100  0.0000000    0.00000       Uiso       1.00
       H30          H  0.9576100  0.4120000  0.0000000    0.00000       Uiso       1.00
        O7          O  0.5152000  0.6826900  0.0000000    0.00000       Uiso       1.00
        O8          O  0.5740400  0.6647700  0.0000000    0.00000       Uiso       1.00
        O9          O  0.3173100  0.8325100  0.0000000    0.00000       Uiso       1.00
       O10          O  0.3352300  0.9092700  0.0000000    0.00000       Uiso       1.00
       O11          O  0.1674900  0.4848000  0.0000000    0.00000       Uiso       1.00
       O12          O  0.0907300  0.4259600  0.0000000    0.00000       Uiso       1.00
       O13          O  0.4848000  0.3173100  0.0000000    0.00000       Uiso       1.00
       O14          O  0.4259600  0.3352300  0.0000000    0.00000       Uiso       1.00
       O15          O  0.6826900  0.1674900  0.0000000    0.00000       Uiso       1.00
       O16          O  0.6647700  0.0907300  0.0000000    0.00000       Uiso       1.00
       O17          O  0.8325100  0.5152000  0.0000000    0.00000       Uiso       1.00
       O18          O  0.9092700  0.5740400  0.0000000    0.00000       Uiso       1.00
