data_TPBD-ME2-2
_audit_creation_date              0000-00-00
_audit_creation_method            'LanYouShi'
_symmetry_space_group_name_H-M    'P1'
_cell_length_a                    29.2800007
_cell_length_b                    29.2800007
_cell_length_c                    3.2500000
_cell_angle_alpha                 90.0000000
_cell_angle_beta                  90.0000000
_cell_angle_gamma                 120.0000000
loop_
_atom_site_label
_atom_site_type_symbol
_atom_site_fract_x
_atom_site_fract_y
_atom_site_fract_z
_atom_site_U_iso_or_equiv
_atom_site_adp_type
_atom_site_occupancy
        H1          H  0.5495500  0.6637499  0.2134500    0.00000       Uiso       1.00
        H2          H  0.3362500  0.8858000  0.2134500    0.00000       Uiso       1.00
        H3          H  0.1142000  0.4504500  0.2134500    0.00000       Uiso       1.00
        H4          H  0.4504500  0.3362500  0.2134500    0.00000       Uiso       1.00
        H5          H  0.6637500  0.1142000  0.2134500    0.00000       Uiso       1.00
        H6          H  0.8858000  0.5495500  0.2134500    0.00000       Uiso       1.00
        H7          H  0.4504500  0.3362500 -0.2134500    0.00000       Uiso       1.00
        H8          H  0.6637500  0.1142000 -0.2134500    0.00000       Uiso       1.00
        H9          H  0.8858000  0.5495500 -0.2134500    0.00000       Uiso       1.00
       H10          H  0.5495500  0.6637499 -0.2134500    0.00000       Uiso       1.00
       H11          H  0.3362500  0.8858000 -0.2134500    0.00000       Uiso       1.00
       H12          H  0.1142000  0.4504500 -0.2134500    0.00000       Uiso       1.00
        O1          O  0.2875500  0.5617900  0.0000000    0.00000       Uiso       1.00
        N1          N  0.3847700  0.5729300  0.0000000    0.00000       Uiso       1.00
        C1          C  0.3092200  0.6097700  0.0000000    0.00000       Uiso       1.00
        C2          C  0.3984600  0.6250400  0.0000000    0.00000       Uiso       1.00
        C3          C  0.4228800  0.5581200  0.0000000    0.00000       Uiso       1.00
        C4          C  0.4797000  0.5923300  0.0000000    0.00000       Uiso       1.00
        C5          C  0.5076700  0.5665900  0.0000000    0.00000       Uiso       1.00
        C6          C  0.4837500  0.5119100  0.0000000    0.00000       Uiso       1.00
        C7          C  0.4289200  0.4808700  0.0000000    0.00000       Uiso       1.00
        C8          C  0.3996400  0.5037900  0.0000000    0.00000       Uiso       1.00
        C9          C  0.3659600  0.6428499  0.0000000    0.00000       Uiso       1.00
       H13          H  0.4373900  0.6518300  0.0000000    0.00000       Uiso       1.00
       C10          C  0.5184700  0.6531100  0.0000000    0.00000       Uiso       1.00
       H14          H  0.3461800  0.5427400  0.0000000    0.00000       Uiso       1.00
       H15          H  0.3571800  0.4779300  0.0000000    0.00000       Uiso       1.00
       H16          H  0.5492500  0.5914900  0.0000000    0.00000       Uiso       1.00
       H17          H  0.4053700  0.4388000  0.0000000    0.00000       Uiso       1.00
       H18          H  0.5119400  0.6869500  0.0000000    0.00000       Uiso       1.00
        O2          O  0.4382100  0.7257600  0.0000000    0.00000       Uiso       1.00
        N2          N  0.4270700  0.8118401  0.0000000    0.00000       Uiso       1.00
       C11          C  0.3902300  0.6994500  0.0000000    0.00000       Uiso       1.00
       C12          C  0.3749600  0.7734200  0.0000000    0.00000       Uiso       1.00
       C13          C  0.4418800  0.8647599  0.0000000    0.00000       Uiso       1.00
       C14          C  0.4076700  0.8873700  0.0000000    0.00000       Uiso       1.00
       C15          C  0.4334100  0.9410800  0.0000000    0.00000       Uiso       1.00
       C16          C  0.4880900  0.9718400  0.0000000    0.00000       Uiso       1.00
       C17          C  0.5191300  0.9480500  0.0000000    0.00000       Uiso       1.00
       C18          C  0.4962100  0.8958499  0.0000000    0.00000       Uiso       1.00
       C19          C  0.3571500  0.7231100  0.0000000    0.00000       Uiso       1.00
       H19          H  0.3481700  0.7855600  0.0000000    0.00000       Uiso       1.00
       C20          C  0.3468900  0.8653600  0.0000000    0.00000       Uiso       1.00
       H20          H  0.4572600  0.8034400  0.0000000    0.00000       Uiso       1.00
       H21          H  0.5220700  0.8792500  0.0000000    0.00000       Uiso       1.00
       H22          H  0.4085100  0.9577600  0.0000000    0.00000       Uiso       1.00
       H23          H  0.5612000  0.9665700  0.0000000    0.00000       Uiso       1.00
       H24          H  0.3130499  0.8249899  0.0000000    0.00000       Uiso       1.00
        O3          O  0.2742400  0.7124500  0.0000000    0.00000       Uiso       1.00
        N3          N  0.1881600  0.6152300  0.0000000    0.00000       Uiso       1.00
       C21          C  0.3005500  0.6907800  0.0000000    0.00000       Uiso       1.00
       C22          C  0.2265800  0.6015400  0.0000000    0.00000       Uiso       1.00
       C23          C  0.1352400  0.5771200  0.0000000    0.00000       Uiso       1.00
       C24          C  0.1126300  0.5203000  0.0000000    0.00000       Uiso       1.00
       C25          C  0.0589200  0.4923300  0.0000000    0.00000       Uiso       1.00
       C26          C  0.0281600  0.5162500  0.0000000    0.00000       Uiso       1.00
       C27          C  0.0519500  0.5710800  0.0000000    0.00000       Uiso       1.00
       C28          C  0.1041500  0.6003600  0.0000000    0.00000       Uiso       1.00
       C29          C  0.2768900  0.6340399  0.0000000    0.00000       Uiso       1.00
       H25          H  0.2144400  0.5626100  0.0000000    0.00000       Uiso       1.00
       C30          C  0.1346400  0.4815300  0.0000000    0.00000       Uiso       1.00
       H26          H  0.1965600  0.6538200  0.0000000    0.00000       Uiso       1.00
       H27          H  0.1207500  0.6428200  0.0000000    0.00000       Uiso       1.00
       H28          H  0.0422400  0.4507500  0.0000000    0.00000       Uiso       1.00
       H29          H  0.0334300  0.5946300  0.0000000    0.00000       Uiso       1.00
       H30          H  0.1750100  0.4880600  0.0000000    0.00000       Uiso       1.00
        O4          O  0.7124500  0.4382100  0.0000000    0.00000       Uiso       1.00
        N4          N  0.6152300  0.4270700  0.0000000    0.00000       Uiso       1.00
       C31          C  0.6907800  0.3902300  0.0000000    0.00000       Uiso       1.00
       C32          C  0.6015400  0.3749600  0.0000000    0.00000       Uiso       1.00
       C33          C  0.5771200  0.4418800  0.0000000    0.00000       Uiso       1.00
       C34          C  0.5203000  0.4076700  0.0000000    0.00000       Uiso       1.00
       C35          C  0.4923300  0.4334100  0.0000000    0.00000       Uiso       1.00
       C36          C  0.5162500  0.4880900  0.0000000    0.00000       Uiso       1.00
       C37          C  0.5710800  0.5191300  0.0000000    0.00000       Uiso       1.00
       C38          C  0.6003600  0.4962099  0.0000000    0.00000       Uiso       1.00
       C39          C  0.6340400  0.3571500  0.0000000    0.00000       Uiso       1.00
       H31          H  0.5626100  0.3481700  0.0000000    0.00000       Uiso       1.00
       C40          C  0.4815300  0.3468899  0.0000000    0.00000       Uiso       1.00
       H32          H  0.6538200  0.4572600  0.0000000    0.00000       Uiso       1.00
       H33          H  0.6428200  0.5220700  0.0000000    0.00000       Uiso       1.00
       H34          H  0.4507500  0.4085100  0.0000000    0.00000       Uiso       1.00
       H35          H  0.5946300  0.5612000  0.0000000    0.00000       Uiso       1.00
       H36          H  0.4880600  0.3130500  0.0000000    0.00000       Uiso       1.00
        O5          O  0.5617900  0.2742400  0.0000000    0.00000       Uiso       1.00
        N5          N  0.5729300  0.1881600  0.0000000    0.00000       Uiso       1.00
       C41          C  0.6097700  0.3005500  0.0000000    0.00000       Uiso       1.00
       C42          C  0.6250400  0.2265800  0.0000000    0.00000       Uiso       1.00
       C43          C  0.5581200  0.1352400  0.0000000    0.00000       Uiso       1.00
       C44          C  0.5923300  0.1126300  0.0000000    0.00000       Uiso       1.00
       C45          C  0.5665900  0.0589200  0.0000000    0.00000       Uiso       1.00
       C46          C  0.5119100  0.0281600  0.0000000    0.00000       Uiso       1.00
       C47          C  0.4808700  0.0519500  0.0000000    0.00000       Uiso       1.00
       C48          C  0.5037900  0.1041500  0.0000000    0.00000       Uiso       1.00
       C49          C  0.6428500  0.2768900  0.0000000    0.00000       Uiso       1.00
       H37          H  0.6518300  0.2144400  0.0000000    0.00000       Uiso       1.00
       C50          C  0.6531100  0.1346400  0.0000000    0.00000       Uiso       1.00
       H38          H  0.5427400  0.1965600  0.0000000    0.00000       Uiso       1.00
       H39          H  0.4779300  0.1207500  0.0000000    0.00000       Uiso       1.00
       H40          H  0.5914900  0.0422400  0.0000000    0.00000       Uiso       1.00
       H41          H  0.4388000  0.0334300  0.0000000    0.00000       Uiso       1.00
       H42          H  0.6869500  0.1750100  0.0000000    0.00000       Uiso       1.00
        O6          O  0.7257600  0.2875500  0.0000000    0.00000       Uiso       1.00
        N6          N  0.8118401  0.3847700  0.0000000    0.00000       Uiso       1.00
       C51          C  0.6994500  0.3092200  0.0000000    0.00000       Uiso       1.00
       C52          C  0.7734200  0.3984600  0.0000000    0.00000       Uiso       1.00
       C53          C  0.8647600  0.4228800  0.0000000    0.00000       Uiso       1.00
       C54          C  0.8873700  0.4797000  0.0000000    0.00000       Uiso       1.00
       C55          C  0.9410800  0.5076700  0.0000000    0.00000       Uiso       1.00
       C56          C  0.9718400  0.4837500  0.0000000    0.00000       Uiso       1.00
       C57          C  0.9480500  0.4289200  0.0000000    0.00000       Uiso       1.00
       C58          C  0.8958499  0.3996400  0.0000000    0.00000       Uiso       1.00
       C59          C  0.7231100  0.3659600  0.0000000    0.00000       Uiso       1.00
       H43          H  0.7855600  0.4373900  0.0000000    0.00000       Uiso       1.00
       C60          C  0.8653600  0.5184700  0.0000000    0.00000       Uiso       1.00
       H44          H  0.8034400  0.3461800  0.0000000    0.00000       Uiso       1.00
       H45          H  0.8792499  0.3571800  0.0000000    0.00000       Uiso       1.00
       H46          H  0.9577600  0.5492500  0.0000000    0.00000       Uiso       1.00
       H47          H  0.9665700  0.4053700  0.0000000    0.00000       Uiso       1.00
       H48          H  0.8249899  0.5119400  0.0000000    0.00000       Uiso       1.00
