data_TpBD-NH2_2
_audit_creation_date              0000-00-00
_audit_creation_method            'LanYouShi'
_symmetry_space_group_name_H-M    'P1'
_cell_length_a                    29.2140007
_cell_length_b                    29.2140007
_cell_length_c                    3.5999999
_cell_angle_alpha                 90.0000000
_cell_angle_beta                  90.0000000
_cell_angle_gamma                 120.0000000
loop_
_atom_site_label
_atom_site_type_symbol
_atom_site_fract_x
_atom_site_fract_y
_atom_site_fract_z
_atom_site_U_iso_or_equiv
_atom_site_adp_type
_atom_site_occupancy
        N1          N  0.4235176 -0.3853219  0.5000000    0.00000       Uiso       1.00
        N1          N  0.3853219 -0.1911605  0.5000000    0.00000       Uiso       1.00
        N1          N  0.1911605 -0.4235176  0.5000000    0.00000       Uiso       1.00
        N1          N  0.5764824 -0.6146781  0.5000000    0.00000       Uiso       1.00
        N1          N  0.6146781 -0.8088394  0.5000000    0.00000       Uiso       1.00
        N1          N  0.8088394 -0.5764824  0.5000000    0.00000       Uiso       1.00
        C1          C  0.3718000 -0.4015464  0.5000000    0.00000       Uiso       1.00
        C2          C  0.4442585 -0.4181458  0.5000000    0.00000       Uiso       1.00
        C3          C  0.4123206 -0.4726290  0.5000000    0.00000       Uiso       1.00
        C4          C  0.4345754 -0.5038574  0.5000000    0.00000       Uiso       1.00
        C5          C  0.4890431 -0.4826230  0.5000000    0.00000       Uiso       1.00
        C6          C  0.5204875 -0.4277305  0.5000000    0.00000       Uiso       1.00
        C7          C  0.4985389 -0.3959006  0.5000000    0.00000       Uiso       1.00
        C1          C  0.4015464 -0.2266536  0.5000000    0.00000       Uiso       1.00
        C2          C  0.4181458 -0.1375956  0.5000000    0.00000       Uiso       1.00
        C3          C  0.4726290 -0.1150503  0.5000000    0.00000       Uiso       1.00
        C4          C  0.5038575 -0.0615671  0.5000000    0.00000       Uiso       1.00
        C5          C  0.4826230 -0.0283338  0.5000000    0.00000       Uiso       1.00
        C6          C  0.4277305 -0.0517820  0.5000000    0.00000       Uiso       1.00
        C7          C  0.3959006 -0.1055605  0.5000000    0.00000       Uiso       1.00
        C1          C  0.2266536 -0.3717999  0.5000000    0.00000       Uiso       1.00
        C2          C  0.1375956 -0.4442585  0.5000000    0.00000       Uiso       1.00
        C3          C  0.1150502 -0.4123207  0.5000000    0.00000       Uiso       1.00
        C4          C  0.0615671 -0.4345754  0.5000000    0.00000       Uiso       1.00
        C5          C  0.0283338 -0.4890431  0.5000000    0.00000       Uiso       1.00
        C6          C  0.0517820 -0.5204875  0.5000000    0.00000       Uiso       1.00
        C7          C  0.1055605 -0.4985389  0.5000000    0.00000       Uiso       1.00
        C1          C  0.6282001 -0.5984536  0.5000000    0.00000       Uiso       1.00
        C2          C  0.5557415 -0.5818541  0.5000000    0.00000       Uiso       1.00
        C3          C  0.5876793 -0.5273709  0.5000000    0.00000       Uiso       1.00
        C4          C  0.5654246 -0.4961425  0.5000000    0.00000       Uiso       1.00
        C5          C  0.5109568 -0.5173770  0.5000000    0.00000       Uiso       1.00
        C6          C  0.4795125 -0.5722694  0.5000000    0.00000       Uiso       1.00
        C7          C  0.5014611 -0.6040993  0.5000000    0.00000       Uiso       1.00
        C1          C  0.5984535 -0.7733464  0.5000000    0.00000       Uiso       1.00
        C2          C  0.5818542 -0.8624043  0.5000000    0.00000       Uiso       1.00
        C3          C  0.5273709 -0.8849497  0.5000000    0.00000       Uiso       1.00
        C4          C  0.4961425 -0.9384329  0.5000000    0.00000       Uiso       1.00
        C5          C  0.5173769 -0.9716662  0.5000000    0.00000       Uiso       1.00
        C6          C  0.5722694 -0.9482180  0.5000000    0.00000       Uiso       1.00
        C7          C  0.6040993 -0.8944395  0.5000000    0.00000       Uiso       1.00
        C1          C  0.7733464 -0.6282000  0.5000000    0.00000       Uiso       1.00
        C2          C  0.8624043 -0.5557415  0.5000000    0.00000       Uiso       1.00
        C3          C  0.8849497 -0.5876793  0.5000000    0.00000       Uiso       1.00
        C4          C  0.9384328 -0.5654246  0.5000000    0.00000       Uiso       1.00
        C5          C  0.9716662 -0.5109568  0.5000000    0.00000       Uiso       1.00
        C6          C  0.9482180 -0.4795125  0.5000000    0.00000       Uiso       1.00
        C7          C  0.8944395 -0.5014611  0.5000000    0.00000       Uiso       1.00
        H1          H  0.3420040 -0.4434484  0.5000000    0.00000       Uiso       1.00
        N1          N  0.3528820 -0.4978696  0.4999633    0.00000       Uiso       1.00
        H2          H  0.4463512 -0.3422273  0.5000000    0.00000       Uiso       1.00
        H3          H  0.5233703 -0.3524265  0.5000000    0.00000       Uiso       1.00
        H4          H  0.4081544 -0.5469092  0.5000000    0.00000       Uiso       1.00
        H5          H  0.5636627 -0.4090842  0.5000000    0.00000       Uiso       1.00
        H6          H  0.3284733 -0.5339005  0.3319426    0.00000       Uiso       1.00
        H7          H  0.3335854 -0.4803864  0.6680334    0.00000       Uiso       1.00
        H1          H  0.4434484 -0.2145476  0.5000000    0.00000       Uiso       1.00
        N1          N  0.4978861 -0.1492330  0.5000131    0.00000       Uiso       1.00
        H2          H  0.3422273 -0.2114215  0.5000000    0.00000       Uiso       1.00
        H3          H  0.3524265 -0.1242032  0.5000000    0.00000       Uiso       1.00
        H4          H  0.5469092 -0.0449364  0.5000000    0.00000       Uiso       1.00
        H5          H  0.4090842 -0.0272531  0.5000000    0.00000       Uiso       1.00
        H6          H  0.4816553 -0.1848843  0.3207677    0.00000       Uiso       1.00
        H7          H  0.5326880 -0.1387155  0.6792673    0.00000       Uiso       1.00
        H1          H  0.2145476 -0.3420040  0.5000000    0.00000       Uiso       1.00
        N1          N  0.1492189 -0.3528815  0.5000325    0.00000       Uiso       1.00
        H2          H  0.2114215 -0.4463512  0.5000000    0.00000       Uiso       1.00
        H3          H  0.1242032 -0.5233703  0.5000000    0.00000       Uiso       1.00
        H4          H  0.0449364 -0.4081544  0.5000000    0.00000       Uiso       1.00
        H5          H  0.0272531 -0.5636626  0.5000000    0.00000       Uiso       1.00
        H6          H  0.1376822 -0.3284930  0.3307839    0.00000       Uiso       1.00
        H7          H  0.1858707 -0.3335619  0.6692347    0.00000       Uiso       1.00
        H1          H  0.6579960 -0.5565516  0.5000000    0.00000       Uiso       1.00
        N1          N  0.6471326 -0.5020955  0.5000184    0.00000       Uiso       1.00
        H2          H  0.5536488 -0.6577727  0.5000000    0.00000       Uiso       1.00
        H3          H  0.4766297 -0.6475735  0.5000000    0.00000       Uiso       1.00
        H4          H  0.5918456 -0.4530908  0.5000000    0.00000       Uiso       1.00
        H5          H  0.4363373 -0.5909158  0.5000000    0.00000       Uiso       1.00
        H6          H  0.6664401 -0.5195515  0.6680568    0.00000       Uiso       1.00
        H7          H  0.6715299 -0.4660544  0.3319611    0.00000       Uiso       1.00
        H1          H  0.5565516 -0.7854524  0.5000000    0.00000       Uiso       1.00
        N1          N  0.5021181 -0.8507642  0.5000269    0.00000       Uiso       1.00
        H2          H  0.6577728 -0.7885785  0.5000000    0.00000       Uiso       1.00
        H3          H  0.6475735 -0.8757968  0.5000000    0.00000       Uiso       1.00
        H4          H  0.4530908 -0.9550636  0.5000000    0.00000       Uiso       1.00
        H5          H  0.5909157 -0.9727469  0.5000000    0.00000       Uiso       1.00
        H6          H  0.4673154 -0.8612781  0.3207848    0.00000       Uiso       1.00
        H7          H  0.5183520 -0.8151143  0.6792848    0.00000       Uiso       1.00
        H1          H  0.7854523 -0.6579960  0.5000000    0.00000       Uiso       1.00
        N1          N  0.8507518 -0.6471185  0.5000325    0.00000       Uiso       1.00
        H2          H  0.7885785 -0.5536487  0.5000000    0.00000       Uiso       1.00
        H3          H  0.8757967 -0.4766297  0.5000000    0.00000       Uiso       1.00
        H4          H  0.9550636 -0.5918456  0.5000000    0.00000       Uiso       1.00
        H5          H  0.9727469 -0.4363373  0.5000000    0.00000       Uiso       1.00
        H6          H  0.8140919 -0.6664249  0.3308200    0.00000       Uiso       1.00
        H7          H  0.8622666 -0.6715163  0.6692654    0.00000       Uiso       1.00
       C43          C  0.6117796 -0.6879699  0.5000000    0.00000       Uiso       1.00
       C44          C  0.6448873 -0.6322750  0.5000000    0.00000       Uiso       1.00
       C43          C  0.6879699 -0.7002504  0.5000000    0.00000       Uiso       1.00
       C44          C  0.6322750 -0.7228377  0.5000000    0.00000       Uiso       1.00
       C43          C  0.7002504 -0.6117796  0.5000000    0.00000       Uiso       1.00
       C44          C  0.7228377 -0.6448872  0.5000000    0.00000       Uiso       1.00
       C43          C  0.3882204 -0.3120300  0.5000000    0.00000       Uiso       1.00
       C44          C  0.3551128 -0.3677249  0.5000000    0.00000       Uiso       1.00
       C43          C  0.3120301 -0.2997496  0.5000000    0.00000       Uiso       1.00
       C44          C  0.3677249 -0.2771623  0.5000000    0.00000       Uiso       1.00
       C43          C  0.2997496 -0.3882204  0.5000000    0.00000       Uiso       1.00
       C44          C  0.2771623 -0.3551128  0.5000000    0.00000       Uiso       1.00
        O1          O  0.5664083 -0.7063492  0.5000000    0.00000       Uiso       1.00
        O1          O  0.7063492 -0.7272424  0.5000000    0.00000       Uiso       1.00
        O1          O  0.7272424 -0.5664083  0.5000000    0.00000       Uiso       1.00
        O1          O  0.4335916 -0.2936508  0.5000000    0.00000       Uiso       1.00
        O1          O  0.2936507 -0.2727576  0.5000000    0.00000       Uiso       1.00
        O1          O  0.2727576 -0.4335916  0.5000000    0.00000       Uiso       1.00
