data_crystal
 
_cell_length_a    29.21400
_cell_length_b    29.21400
_cell_length_c    3.60000
_cell_angle_alpha 90.00000
_cell_angle_beta  90.00000
_cell_angle_gamma 120.00000
 
_symmetry_space_group_name_Hall 'P 1'
_symmetry_space_group_name_H-M  'P 1'
 
loop_
_symmetry_equiv_pos_as_xyz
 'x,y,z' 
 
loop_
_atom_site_label
_atom_site_type_symbol
_atom_site_fract_x
_atom_site_fract_y
_atom_site_fract_z
_atom_site_charge
N          N       0.42352  -0.38532   0.50000   0.0000000000
N          N       0.38532  -0.19116   0.50000   0.0000000000
N          N       0.19116  -0.42352   0.50000   0.0000000000
N          N       0.57648  -0.61468   0.50000   0.0000000000
N          N       0.61468  -0.80884   0.50000   0.0000000000
N          N       0.80884  -0.57648   0.50000   0.0000000000
C          C       0.37180  -0.40155   0.50000   0.0000000000
C          C       0.44426  -0.41815   0.50000   0.0000000000
C          C       0.41232  -0.47263   0.50000   0.0000000000
C          C       0.43458  -0.50386   0.50000   0.0000000000
C          C       0.48904  -0.48262   0.50000   0.0000000000
C          C       0.52049  -0.42773   0.50000   0.0000000000
C          C       0.49854  -0.39590   0.50000   0.0000000000
C          C       0.40155  -0.22665   0.50000   0.0000000000
C          C       0.41815  -0.13760   0.50000   0.0000000000
C          C       0.47263  -0.11505   0.50000   0.0000000000
C          C       0.50386  -0.06157   0.50000   0.0000000000
C          C       0.48262  -0.02833   0.50000   0.0000000000
C          C       0.42773  -0.05178   0.50000   0.0000000000
C          C       0.39590  -0.10556   0.50000   0.0000000000
C          C       0.22665  -0.37180   0.50000   0.0000000000
C          C       0.13760  -0.44426   0.50000   0.0000000000
C          C       0.11505  -0.41232   0.50000   0.0000000000
C          C       0.06157  -0.43458   0.50000   0.0000000000
C          C       0.02833  -0.48904   0.50000   0.0000000000
C          C       0.05178  -0.52049   0.50000   0.0000000000
C          C       0.10556  -0.49854   0.50000   0.0000000000
C          C       0.62820  -0.59845   0.50000   0.0000000000
C          C       0.55574  -0.58185   0.50000   0.0000000000
C          C       0.58768  -0.52737   0.50000   0.0000000000
C          C       0.56542  -0.49614   0.50000   0.0000000000
C          C       0.51096  -0.51738   0.50000   0.0000000000
C          C       0.47951  -0.57227   0.50000   0.0000000000
C          C       0.50146  -0.60410   0.50000   0.0000000000
C          C       0.59845  -0.77335   0.50000   0.0000000000
C          C       0.58185  -0.86240   0.50000   0.0000000000
C          C       0.52737  -0.88495   0.50000   0.0000000000
C          C       0.49614  -0.93843   0.50000   0.0000000000
C          C       0.51738  -0.97167   0.50000   0.0000000000
C          C       0.57227  -0.94822   0.50000   0.0000000000
C          C       0.60410  -0.89444   0.50000   0.0000000000
C          C       0.77335  -0.62820   0.50000   0.0000000000
C          C       0.86240  -0.55574   0.50000   0.0000000000
C          C       0.88495  -0.58768   0.50000   0.0000000000
C          C       0.93843  -0.56542   0.50000   0.0000000000
C          C       0.97167  -0.51096   0.50000   0.0000000000
C          C       0.94822  -0.47951   0.50000   0.0000000000
C          C       0.89444  -0.50146   0.50000   0.0000000000
H          H       0.34200  -0.44345   0.50000   0.0000000000
N          N       0.35288  -0.49787   0.49996   0.0000000000
H          H       0.44635  -0.34223   0.50000   0.0000000000
H          H       0.52337  -0.35243   0.50000   0.0000000000
H          H       0.40815  -0.54691   0.50000   0.0000000000
H          H       0.56366  -0.40908   0.50000   0.0000000000
H          H       0.32847  -0.53390   0.33194   0.0000000000
H          H       0.33359  -0.48039   0.66803   0.0000000000
H          H       0.44345  -0.21455   0.50000   0.0000000000
N          N       0.49789  -0.14923   0.50001   0.0000000000
H          H       0.34223  -0.21142   0.50000   0.0000000000
H          H       0.35243  -0.12420   0.50000   0.0000000000
H          H       0.54691  -0.04494   0.50000   0.0000000000
H          H       0.40908  -0.02725   0.50000   0.0000000000
H          H       0.48166  -0.18488   0.32077   0.0000000000
H          H       0.53269  -0.13872   0.67927   0.0000000000
H          H       0.21455  -0.34200   0.50000   0.0000000000
N          N       0.14922  -0.35288   0.50003   0.0000000000
H          H       0.21142  -0.44635   0.50000   0.0000000000
H          H       0.12420  -0.52337   0.50000   0.0000000000
H          H       0.04494  -0.40815   0.50000   0.0000000000
H          H       0.02725  -0.56366   0.50000   0.0000000000
H          H       0.13768  -0.32849   0.33078   0.0000000000
H          H       0.18587  -0.33356   0.66923   0.0000000000
H          H       0.65800  -0.55655   0.50000   0.0000000000
N          N       0.64713  -0.50210   0.50002   0.0000000000
H          H       0.55365  -0.65777   0.50000   0.0000000000
H          H       0.47663  -0.64757   0.50000   0.0000000000
H          H       0.59185  -0.45309   0.50000   0.0000000000
H          H       0.43634  -0.59092   0.50000   0.0000000000
H          H       0.66644  -0.51955   0.66806   0.0000000000
H          H       0.67153  -0.46605   0.33196   0.0000000000
H          H       0.55655  -0.78545   0.50000   0.0000000000
N          N       0.50212  -0.85076   0.50003   0.0000000000
H          H       0.65777  -0.78858   0.50000   0.0000000000
H          H       0.64757  -0.87580   0.50000   0.0000000000
H          H       0.45309  -0.95506   0.50000   0.0000000000
H          H       0.59092  -0.97275   0.50000   0.0000000000
H          H       0.46732  -0.86128   0.32078   0.0000000000
H          H       0.51835  -0.81511   0.67928   0.0000000000
H          H       0.78545  -0.65800   0.50000   0.0000000000
N          N       0.85075  -0.64712   0.50003   0.0000000000
H          H       0.78858  -0.55365   0.50000   0.0000000000
H          H       0.87580  -0.47663   0.50000   0.0000000000
H          H       0.95506  -0.59185   0.50000   0.0000000000
H          H       0.97275  -0.43634   0.50000   0.0000000000
H          H       0.81409  -0.66642   0.33082   0.0000000000
H          H       0.86227  -0.67152   0.66927   0.0000000000
C          C       0.61178  -0.68797   0.50000   0.0000000000
C          C       0.64489  -0.63228   0.50000   0.0000000000
C          C       0.68797  -0.70025   0.50000   0.0000000000
C          C       0.63228  -0.72284   0.50000   0.0000000000
C          C       0.70025  -0.61178   0.50000   0.0000000000
C          C       0.72284  -0.64489   0.50000   0.0000000000
C          C       0.38822  -0.31203   0.50000   0.0000000000
C          C       0.35511  -0.36772   0.50000   0.0000000000
C          C       0.31203  -0.29975   0.50000   0.0000000000
C          C       0.36772  -0.27716   0.50000   0.0000000000
C          C       0.29975  -0.38822   0.50000   0.0000000000
C          C       0.27716  -0.35511   0.50000   0.0000000000
O          O       0.56641  -0.70635   0.50000   0.0000000000
O          O       0.70635  -0.72724   0.50000   0.0000000000
O          O       0.72724  -0.56641   0.50000   0.0000000000
O          O       0.43359  -0.29365   0.50000   0.0000000000
O          O       0.29365  -0.27276   0.50000   0.0000000000
O          O       0.27276  -0.43359   0.50000   0.0000000000
