data_TpBD-NHCOCH3_2
_audit_creation_date              0000-00-00
_audit_creation_method            'LanYouShi'
_symmetry_space_group_name_H-M    'P1'
_cell_length_a                    29.2140007
_cell_length_b                    29.2140007
_cell_length_c                    3.5999999
_cell_angle_alpha                 90.0000000
_cell_angle_beta                  90.0000000
_cell_angle_gamma                 120.0000000
loop_
_atom_site_label
_atom_site_type_symbol
_atom_site_fract_x
_atom_site_fract_y
_atom_site_fract_z
_atom_site_U_iso_or_equiv
_atom_site_adp_type
_atom_site_occupancy
        N1          N  0.4235176  0.6146781  0.5000000    0.00000       Uiso       1.00
        N1          N  0.3853219  0.8088394  0.5000000    0.00000       Uiso       1.00
        N1          N  0.1911605  0.5764824  0.5000000    0.00000       Uiso       1.00
        N1          N  0.5764824  0.3853219  0.5000000    0.00000       Uiso       1.00
        N1          N  0.6146781  0.1911605  0.5000000    0.00000       Uiso       1.00
        N1          N  0.8088394  0.4235176  0.5000000    0.00000       Uiso       1.00
        C1          C  0.3717999  0.5984536  0.5000000    0.00000       Uiso       1.00
        C2          C  0.4442585  0.5818541  0.5000000    0.00000       Uiso       1.00
        C3          C  0.4123207  0.5273709  0.5000000    0.00000       Uiso       1.00
        C4          C  0.4345754  0.4961425  0.5000000    0.00000       Uiso       1.00
        C5          C  0.4890431  0.5173770  0.5000000    0.00000       Uiso       1.00
        C6          C  0.5204875  0.5722694  0.5000000    0.00000       Uiso       1.00
        C7          C  0.4985389  0.6040993  0.5000000    0.00000       Uiso       1.00
        H1          H  0.3685677  0.4165666  0.2410392    0.00000       Uiso       1.00
        H2          H  0.3685677  0.4165666  0.7589608    0.00000       Uiso       1.00
        N1          N  0.3529305  0.5027951  0.5000000    0.00000       Uiso       1.00
        C8          C  0.3180477  0.4434721  0.5000000    0.00000       Uiso       1.00
        H3          H  0.3348922  0.5283930  0.5000000    0.00000       Uiso       1.00
        C9          C  0.3430735  0.4079791  0.5000000    0.00000       Uiso       1.00
        O1          O  0.2586563  0.4189939  0.5000000    0.00000       Uiso       1.00
        H4          H  0.3104411  0.3647516  0.5000000    0.00000       Uiso       1.00
        C1          C  0.4015464  0.7733464  0.5000000    0.00000       Uiso       1.00
        C2          C  0.4181458  0.8624043  0.5000000    0.00000       Uiso       1.00
        C3          C  0.4726290  0.8849497  0.5000000    0.00000       Uiso       1.00
        C4          C  0.5038575  0.9384329  0.5000000    0.00000       Uiso       1.00
        C5          C  0.4826231  0.9716662  0.5000000    0.00000       Uiso       1.00
        C6          C  0.4277305  0.9482180  0.5000000    0.00000       Uiso       1.00
        C7          C  0.3959006  0.8944395  0.5000000    0.00000       Uiso       1.00
        H1          H  0.5834334  0.9520012  0.2410392    0.00000       Uiso       1.00
        H2          H  0.5834334  0.9520012  0.7589608    0.00000       Uiso       1.00
        N1          N  0.4972049  0.8501354  0.5000000    0.00000       Uiso       1.00
        C8          C  0.5565279  0.8745756  0.5000000    0.00000       Uiso       1.00
        H3          H  0.4716069  0.8064991  0.5000000    0.00000       Uiso       1.00
        C9          C  0.5920209  0.9350944  0.5000000    0.00000       Uiso       1.00
        O1          O  0.5810061  0.8396624  0.5000000    0.00000       Uiso       1.00
        H4          H  0.6352484  0.9456896  0.5000000    0.00000       Uiso       1.00
        C1          C  0.2266536  0.6282000  0.5000000    0.00000       Uiso       1.00
        C2          C  0.1375956  0.5557415  0.5000000    0.00000       Uiso       1.00
        C3          C  0.1150503  0.5876793  0.5000000    0.00000       Uiso       1.00
        C4          C  0.0615671  0.5654246  0.5000000    0.00000       Uiso       1.00
        C5          C  0.0283338  0.5109568  0.5000000    0.00000       Uiso       1.00
        C6          C  0.0517820  0.4795125  0.5000000    0.00000       Uiso       1.00
        C7          C  0.1055605  0.5014611  0.5000000    0.00000       Uiso       1.00
        H1          H  0.0479988  0.6314322  0.2410392    0.00000       Uiso       1.00
        H2          H  0.0479988  0.6314322  0.7589608    0.00000       Uiso       1.00
        N1          N  0.1498646  0.6470695  0.5000000    0.00000       Uiso       1.00
        C8          C  0.1254244  0.6819523  0.5000000    0.00000       Uiso       1.00
        H3          H  0.1935009  0.6651077  0.5000000    0.00000       Uiso       1.00
        C9          C  0.0649055  0.6569265  0.5000000    0.00000       Uiso       1.00
        O1          O  0.1603376  0.7413437  0.5000000    0.00000       Uiso       1.00
        H4          H  0.0543105  0.6895589  0.5000000    0.00000       Uiso       1.00
        C1          C  0.6282000  0.4015464  0.5000000    0.00000       Uiso       1.00
        C2          C  0.5557415  0.4181458  0.5000000    0.00000       Uiso       1.00
        C3          C  0.5876793  0.4726290  0.5000000    0.00000       Uiso       1.00
        C4          C  0.5654246  0.5038574  0.5000000    0.00000       Uiso       1.00
        C5          C  0.5109568  0.4826230  0.5000000    0.00000       Uiso       1.00
        C6          C  0.4795125  0.4277305  0.5000000    0.00000       Uiso       1.00
        C7          C  0.5014611  0.3959006  0.5000000    0.00000       Uiso       1.00
        H1          H  0.6314322  0.5834334  0.2410392    0.00000       Uiso       1.00
        H2          H  0.6314322  0.5834334  0.7589608    0.00000       Uiso       1.00
        N1          N  0.6470695  0.4972049  0.5000000    0.00000       Uiso       1.00
        C8          C  0.6819523  0.5565279  0.5000000    0.00000       Uiso       1.00
        H3          H  0.6651078  0.4716069  0.5000000    0.00000       Uiso       1.00
        C9          C  0.6569265  0.5920209  0.5000000    0.00000       Uiso       1.00
        O1          O  0.7413437  0.5810061  0.5000000    0.00000       Uiso       1.00
        H4          H  0.6895589  0.6352484  0.5000000    0.00000       Uiso       1.00
        C1          C  0.5984536  0.2266536  0.5000000    0.00000       Uiso       1.00
        C2          C  0.5818541  0.1375956  0.5000000    0.00000       Uiso       1.00
        C3          C  0.5273709  0.1150503  0.5000000    0.00000       Uiso       1.00
        C4          C  0.4961425  0.0615671  0.5000000    0.00000       Uiso       1.00
        C5          C  0.5173770  0.0283338  0.5000000    0.00000       Uiso       1.00
        C6          C  0.5722695  0.0517820  0.5000000    0.00000       Uiso       1.00
        C7          C  0.6040994  0.1055605  0.5000000    0.00000       Uiso       1.00
        H1          H  0.4165666  0.0479988  0.2410392    0.00000       Uiso       1.00
        H2          H  0.4165666  0.0479988  0.7589608    0.00000       Uiso       1.00
        N1          N  0.5027950  0.1498646  0.5000000    0.00000       Uiso       1.00
        C8          C  0.4434721  0.1254244  0.5000000    0.00000       Uiso       1.00
        H3          H  0.5283931  0.1935009  0.5000000    0.00000       Uiso       1.00
        C9          C  0.4079791  0.0649055  0.5000000    0.00000       Uiso       1.00
        O1          O  0.4189938  0.1603376  0.5000000    0.00000       Uiso       1.00
        H4          H  0.3647515  0.0543105  0.5000000    0.00000       Uiso       1.00
        C1          C  0.7733464  0.3717999  0.5000000    0.00000       Uiso       1.00
        C2          C  0.8624044  0.4442585  0.5000000    0.00000       Uiso       1.00
        C3          C  0.8849497  0.4123207  0.5000000    0.00000       Uiso       1.00
        C4          C  0.9384329  0.4345754  0.5000000    0.00000       Uiso       1.00
        C5          C  0.9716662  0.4890431  0.5000000    0.00000       Uiso       1.00
        C6          C  0.9482180  0.5204875  0.5000000    0.00000       Uiso       1.00
        C7          C  0.8944395  0.4985389  0.5000000    0.00000       Uiso       1.00
        H1          H  0.9520012  0.3685677  0.2410392    0.00000       Uiso       1.00
        H2          H  0.9520012  0.3685677  0.7589608    0.00000       Uiso       1.00
        N1          N  0.8501354  0.3529305  0.5000000    0.00000       Uiso       1.00
        C8          C  0.8745756  0.3180477  0.5000000    0.00000       Uiso       1.00
        H3          H  0.8064991  0.3348922  0.5000000    0.00000       Uiso       1.00
        C9          C  0.9350944  0.3430735  0.5000000    0.00000       Uiso       1.00
        O1          O  0.8396624  0.2586563  0.5000000    0.00000       Uiso       1.00
        H4          H  0.9456895  0.3104411  0.5000000    0.00000       Uiso       1.00
        H1          H  0.3415680  0.5544020  0.5000000    0.00000       Uiso       1.00
        H3          H  0.4501776  0.6581841  0.5000000    0.00000       Uiso       1.00
        H4          H  0.5249888  0.6489162  0.5000000    0.00000       Uiso       1.00
        H5          H  0.4083883  0.4512933  0.5000000    0.00000       Uiso       1.00
        H6          H  0.5653881  0.5914494  0.5000000    0.00000       Uiso       1.00
        H1          H  0.4455980  0.7871660  0.5000000    0.00000       Uiso       1.00
        H3          H  0.3418159  0.7919934  0.5000000    0.00000       Uiso       1.00
        H4          H  0.3510838  0.8760726  0.5000000    0.00000       Uiso       1.00
        H5          H  0.5487067  0.9570949  0.5000000    0.00000       Uiso       1.00
        H6          H  0.4085506  0.9739387  0.5000000    0.00000       Uiso       1.00
        H1          H  0.2128340  0.6584319  0.5000000    0.00000       Uiso       1.00
        H3          H  0.2080065  0.5498224  0.5000000    0.00000       Uiso       1.00
        H4          H  0.1239273  0.4750111  0.5000000    0.00000       Uiso       1.00
        H5          H  0.0429050  0.5916117  0.5000000    0.00000       Uiso       1.00
        H6          H  0.0260613  0.4346118  0.5000000    0.00000       Uiso       1.00
        H1          H  0.6584320  0.4455980  0.5000000    0.00000       Uiso       1.00
        H3          H  0.5498224  0.3418159  0.5000000    0.00000       Uiso       1.00
        H4          H  0.4750111  0.3510838  0.5000000    0.00000       Uiso       1.00
        H5          H  0.5916117  0.5487067  0.5000000    0.00000       Uiso       1.00
        H6          H  0.4346118  0.4085506  0.5000000    0.00000       Uiso       1.00
        H1          H  0.5544020  0.2128340  0.5000000    0.00000       Uiso       1.00
        H3          H  0.6581841  0.2080065  0.5000000    0.00000       Uiso       1.00
        H4          H  0.6489161  0.1239273  0.5000000    0.00000       Uiso       1.00
        H5          H  0.4512933  0.0429050  0.5000000    0.00000       Uiso       1.00
        H6          H  0.5914494  0.0260613  0.5000000    0.00000       Uiso       1.00
        H1          H  0.7871659  0.3415680  0.5000000    0.00000       Uiso       1.00
        H3          H  0.7919935  0.4501776  0.5000000    0.00000       Uiso       1.00
        H4          H  0.8760726  0.5249888  0.5000000    0.00000       Uiso       1.00
        H5          H  0.9570950  0.4083883  0.5000000    0.00000       Uiso       1.00
        H6          H  0.9739387  0.5653881  0.5000000    0.00000       Uiso       1.00
       C43          C  0.6117796  0.3120300  0.5000000    0.00000       Uiso       1.00
       C44          C  0.6448872  0.3677249  0.5000000    0.00000       Uiso       1.00
       C43          C  0.6879699  0.2997496  0.5000000    0.00000       Uiso       1.00
       C44          C  0.6322750  0.2771623  0.5000000    0.00000       Uiso       1.00
       C43          C  0.7002504  0.3882204  0.5000000    0.00000       Uiso       1.00
       C44          C  0.7228377  0.3551128  0.5000000    0.00000       Uiso       1.00
       C43          C  0.3882204  0.6879699  0.5000000    0.00000       Uiso       1.00
       C44          C  0.3551128  0.6322750  0.5000000    0.00000       Uiso       1.00
       C43          C  0.3120300  0.7002504  0.5000000    0.00000       Uiso       1.00
       C44          C  0.3677249  0.7228377  0.5000000    0.00000       Uiso       1.00
       C43          C  0.2997496  0.6117796  0.5000000    0.00000       Uiso       1.00
       C44          C  0.2771623  0.6448872  0.5000000    0.00000       Uiso       1.00
        O1          O  0.5664083  0.2936508  0.5000000    0.00000       Uiso       1.00
        O1          O  0.7063492  0.2727576  0.5000000    0.00000       Uiso       1.00
        O1          O  0.7272424  0.4335916  0.5000000    0.00000       Uiso       1.00
        O1          O  0.4335916  0.7063492  0.5000000    0.00000       Uiso       1.00
        O1          O  0.2936507  0.7272424  0.5000000    0.00000       Uiso       1.00
        O1          O  0.2727576  0.5664083  0.5000000    0.00000       Uiso       1.00
