data_TPE-Ph_COF
_audit_creation_date              0000-00-00
_audit_creation_method            'LanYouShi'
_symmetry_space_group_name_H-M    'P1'
_cell_length_a                    37.5242004
_cell_length_b                    37.5242004
_cell_length_c                    6.2458000
_cell_angle_alpha                 90.0000000
_cell_angle_beta                  90.0000000
_cell_angle_gamma                 120.0000000
loop_
_atom_site_label
_atom_site_type_symbol
_atom_site_fract_x
_atom_site_fract_y
_atom_site_fract_z
_atom_site_U_iso_or_equiv
_atom_site_adp_type
_atom_site_occupancy
        C1          C  0.4810273  0.4809896  0.5075965    0.00000       Uiso       1.00
        C2          C  0.5190106  0.0000373  0.5075965    0.00000       Uiso       1.00
        C3          C  0.9999629  0.5189729  0.5075965    0.00000       Uiso       1.00
        C4          C  0.5189729  0.5190106  0.5075965    0.00000       Uiso       1.00
        C5          C  0.4809896  0.9999629  0.5075965    0.00000       Uiso       1.00
        C6          C  0.0000373  0.4810273  0.5075965    0.00000       Uiso       1.00
        C7          C  0.4428005  0.4797359  0.5102974    0.00000       Uiso       1.00
        C8          C  0.5202643  0.9630651  0.5102974    0.00000       Uiso       1.00
        C9          C  0.0369350  0.5571997  0.5102974    0.00000       Uiso       1.00
       C10          C  0.5571997  0.5202642  0.5102974    0.00000       Uiso       1.00
       C11          C  0.4797359  0.0369350  0.5102974    0.00000       Uiso       1.00
       C12          C  0.9630651  0.4428005  0.5102974    0.00000       Uiso       1.00
       C13          C  0.4179434  0.4678672  0.3248299    0.00000       Uiso       1.00
       C14          C  0.5321330  0.9500768  0.3248299    0.00000       Uiso       1.00
       C15          C  0.0499235  0.5820568  0.3248299    0.00000       Uiso       1.00
       C16          C  0.5820568  0.5321329  0.3248299    0.00000       Uiso       1.00
       C17          C  0.4678672  0.0499234  0.3248299    0.00000       Uiso       1.00
       C18          C  0.9500767  0.4179434  0.3248299    0.00000       Uiso       1.00
       C19          C  0.3803826  0.4677221  0.3235474    0.00000       Uiso       1.00
       C20          C  0.5322781  0.9126611  0.3235474    0.00000       Uiso       1.00
       C21          C  0.0873391  0.6196176  0.3235474    0.00000       Uiso       1.00
       C22          C  0.6196176  0.5322781  0.3235474    0.00000       Uiso       1.00
       C23          C  0.4677221  0.0873391  0.3235474    0.00000       Uiso       1.00
       C24          C  0.9126611  0.3803826  0.3235474    0.00000       Uiso       1.00
       C25          C  0.3664795  0.4783473  0.5099613    0.00000       Uiso       1.00
       C26          C  0.5216529  0.8881328  0.5099613    0.00000       Uiso       1.00
       C27          C  0.1118674  0.6335207  0.5099613    0.00000       Uiso       1.00
       C28          C  0.6335207  0.5216529  0.5099613    0.00000       Uiso       1.00
       C29          C  0.4783473  0.1118674  0.5099613    0.00000       Uiso       1.00
       C30          C  0.8881328  0.3664795  0.5099613    0.00000       Uiso       1.00
       C31          C  0.3909293  0.4895225  0.6969023    0.00000       Uiso       1.00
       C32          C  0.5104777  0.9014073  0.6969023    0.00000       Uiso       1.00
       C33          C  0.0985929  0.6090709  0.6969023    0.00000       Uiso       1.00
       C34          C  0.6090710  0.5104777  0.6969023    0.00000       Uiso       1.00
       C35          C  0.4895225  0.0985929  0.6969023    0.00000       Uiso       1.00
       C36          C  0.9014073  0.3909293  0.6969023    0.00000       Uiso       1.00
       C37          C  0.4290164  0.4906798  0.6960814    0.00000       Uiso       1.00
       C38          C  0.5093203  0.9383371  0.6960814    0.00000       Uiso       1.00
       C39          C  0.0616631  0.5709838  0.6960814    0.00000       Uiso       1.00
       C40          C  0.5709838  0.5093204  0.6960814    0.00000       Uiso       1.00
       C41          C  0.4906798  0.0616631  0.6960814    0.00000       Uiso       1.00
       C42          C  0.9383371  0.4290164  0.6960814    0.00000       Uiso       1.00
       C43          C  0.4794756  0.4425758  0.5037413    0.00000       Uiso       1.00
       C44          C  0.5574244  0.0368995  0.5037413    0.00000       Uiso       1.00
       C45          C  0.9631007  0.5205246  0.5037413    0.00000       Uiso       1.00
       C46          C  0.5205245  0.5574244  0.5037413    0.00000       Uiso       1.00
       C47          C  0.4425758  0.9631007  0.5037413    0.00000       Uiso       1.00
       C48          C  0.0368995  0.4794756  0.5037413    0.00000       Uiso       1.00
       C49          C  0.4629919  0.4152209  0.6789445    0.00000       Uiso       1.00
       C50          C  0.5847793  0.0477706  0.6789445    0.00000       Uiso       1.00
       C51          C  0.9522296  0.5370083  0.6789445    0.00000       Uiso       1.00
       C52          C  0.5370083  0.5847793  0.6789445    0.00000       Uiso       1.00
       C53          C  0.4152209  0.9522296  0.6789445    0.00000       Uiso       1.00
       C54          C  0.0477706  0.4629919  0.6789445    0.00000       Uiso       1.00
       C55          C  0.4621386  0.3773162  0.6776407    0.00000       Uiso       1.00
       C56          C  0.6226839  0.0848219  0.6776407    0.00000       Uiso       1.00
       C57          C  0.9151782  0.5378616  0.6776407    0.00000       Uiso       1.00
       C58          C  0.5378616  0.6226839  0.6776407    0.00000       Uiso       1.00
       C59          C  0.3773162  0.9151782  0.6776407    0.00000       Uiso       1.00
       C60          C  0.0848219  0.4621386  0.6776407    0.00000       Uiso       1.00
       C61          C  0.4775889  0.3658312  0.5003847    0.00000       Uiso       1.00
       C62          C  0.6341689  0.1117572  0.5003847    0.00000       Uiso       1.00
       C63          C  0.8882430  0.5224113  0.5003847    0.00000       Uiso       1.00
       C64          C  0.5224113  0.6341690  0.5003847    0.00000       Uiso       1.00
       C65          C  0.3658313  0.8882430  0.5003847    0.00000       Uiso       1.00
       C66          C  0.1117572  0.4775889  0.5003847    0.00000       Uiso       1.00
       C67          C  0.4936051  0.3929035  0.3237925    0.00000       Uiso       1.00
       C68          C  0.6070967  0.1007012  0.3237925    0.00000       Uiso       1.00
       C69          C  0.8992989  0.5063950  0.3237925    0.00000       Uiso       1.00
       C70          C  0.5063950  0.6070967  0.3237925    0.00000       Uiso       1.00
       C71          C  0.3929035  0.8992990  0.3237925    0.00000       Uiso       1.00
       C72          C  0.1007013  0.4936051  0.3237925    0.00000       Uiso       1.00
       C73          C  0.4945122  0.4308346  0.3255587    0.00000       Uiso       1.00
       C74          C  0.5691656  0.0636772  0.3255587    0.00000       Uiso       1.00
       C75          C  0.9363230  0.5054880  0.3255587    0.00000       Uiso       1.00
       C76          C  0.5054880  0.5691656  0.3255587    0.00000       Uiso       1.00
       C77          C  0.4308346  0.9363230  0.3255587    0.00000       Uiso       1.00
       C78          C  0.0636772  0.4945122  0.3255587    0.00000       Uiso       1.00
        B1          B  0.3266051  0.4779054  0.5086734    0.00000       Uiso       1.00
        B2          B  0.5220948  0.8487002  0.5086734    0.00000       Uiso       1.00
        B3          B  0.1513000  0.6733951  0.5086734    0.00000       Uiso       1.00
        B4          B  0.6733952  0.5220948  0.5086734    0.00000       Uiso       1.00
        B5          B  0.4779054  0.1513000  0.5086734    0.00000       Uiso       1.00
        B6          B  0.8487002  0.3266051  0.5086734    0.00000       Uiso       1.00
        O1          O  0.2984264  0.4657391  0.6864405    0.00000       Uiso       1.00
        O2          O  0.5342611  0.8326879  0.6864405    0.00000       Uiso       1.00
        O3          O  0.1673122  0.7015737  0.6864405    0.00000       Uiso       1.00
        O4          O  0.7015737  0.5342611  0.6864405    0.00000       Uiso       1.00
        O5          O  0.4657391  0.1673122  0.6864405    0.00000       Uiso       1.00
        O6          O  0.8326880  0.2984264  0.6864405    0.00000       Uiso       1.00
        O7          O  0.3107560  0.4896455  0.3284855    0.00000       Uiso       1.00
        O8          O  0.5103547  0.8211111  0.3284855    0.00000       Uiso       1.00
        O9          O  0.1788891  0.6892442  0.3284855    0.00000       Uiso       1.00
       O10          O  0.6892442  0.5103547  0.3284855    0.00000       Uiso       1.00
       O11          O  0.4896455  0.1788891  0.3284855    0.00000       Uiso       1.00
       O12          O  0.8211111  0.3107560  0.3284855    0.00000       Uiso       1.00
       C79          C  0.2670427  0.4698925  0.6110917    0.00000       Uiso       1.00
       C80          C  0.5301077  0.7971508  0.6110917    0.00000       Uiso       1.00
       C81          C  0.2028494  0.7329575  0.6110917    0.00000       Uiso       1.00
       C82          C  0.7329575  0.5301077  0.6110917    0.00000       Uiso       1.00
       C83          C  0.4698925  0.2028494  0.6110917    0.00000       Uiso       1.00
       C84          C  0.7971507  0.2670427  0.6110917    0.00000       Uiso       1.00
        B7          B  0.4772013  0.3259074  0.5005479    0.00000       Uiso       1.00
        B8          B  0.6740928  0.1512935  0.5005479    0.00000       Uiso       1.00
        B9          B  0.8487067  0.5227988  0.5005479    0.00000       Uiso       1.00
       B10          B  0.5227988  0.6740927  0.5005479    0.00000       Uiso       1.00
       B11          B  0.3259074  0.8487067  0.5005479    0.00000       Uiso       1.00
       B12          B  0.1512935  0.4772014  0.5005479    0.00000       Uiso       1.00
       O13          O  0.4906949  0.3104571  0.3257352    0.00000       Uiso       1.00
       O14          O  0.6895431  0.1802375  0.3257352    0.00000       Uiso       1.00
       O15          O  0.8197627  0.5093053  0.3257352    0.00000       Uiso       1.00
       O16          O  0.5093053  0.6895431  0.3257352    0.00000       Uiso       1.00
       O17          O  0.3104570  0.8197627  0.3257352    0.00000       Uiso       1.00
       O18          O  0.1802375  0.4906949  0.3257352    0.00000       Uiso       1.00
       O19          O  0.4635149  0.2972230  0.6764842    0.00000       Uiso       1.00
       O20          O  0.7027772  0.1662915  0.6764842    0.00000       Uiso       1.00
       O21          O  0.8337086  0.5364853  0.6764842    0.00000       Uiso       1.00
       O22          O  0.5364853  0.7027771  0.6764842    0.00000       Uiso       1.00
       O23          O  0.2972230  0.8337087  0.6764842    0.00000       Uiso       1.00
       O24          O  0.1662915  0.4635149  0.6764842    0.00000       Uiso       1.00
       C85          C  0.4851369  0.2741977  0.3979665    0.00000       Uiso       1.00
       C86          C  0.7258025  0.2109388  0.3979665    0.00000       Uiso       1.00
       C87          C  0.7890613  0.5148633  0.3979665    0.00000       Uiso       1.00
       C88          C  0.5148633  0.7258025  0.3979665    0.00000       Uiso       1.00
       C89          C  0.2741976  0.7890613  0.3979665    0.00000       Uiso       1.00
       C90          C  0.2109389  0.4851369  0.3979665    0.00000       Uiso       1.00
       C91          C  0.4934113  0.2462307  0.2901714    0.00000       Uiso       1.00
       C92          C  0.7537695  0.2471802  0.2901714    0.00000       Uiso       1.00
       C93          C  0.7528199  0.5065888  0.2901714    0.00000       Uiso       1.00
       C94          C  0.5065889  0.7537695  0.2901714    0.00000       Uiso       1.00
       C95          C  0.2462307  0.7528200  0.2901714    0.00000       Uiso       1.00
       C96          C  0.2471802  0.4934113  0.2901714    0.00000       Uiso       1.00
       C97          C  0.4691099  0.2663990  0.6067477    0.00000       Uiso       1.00
       C98          C  0.7336012  0.2027105  0.6067477    0.00000       Uiso       1.00
       C99          C  0.7972897  0.5308903  0.6067477    0.00000       Uiso       1.00
      C100          C  0.5308902  0.7336012  0.6067477    0.00000       Uiso       1.00
      C101          C  0.2663990  0.7972897  0.6067477    0.00000       Uiso       1.00
      C102          C  0.2027105  0.4691099  0.6067477    0.00000       Uiso       1.00
      C103          C  0.4849432  0.2101492  0.4002403    0.00000       Uiso       1.00
      C104          C  0.7898510  0.2747936  0.4002403    0.00000       Uiso       1.00
      C105          C  0.7252066  0.5150570  0.4002403    0.00000       Uiso       1.00
      C106          C  0.5150570  0.7898510  0.4002403    0.00000       Uiso       1.00
      C107          C  0.2101493  0.7252066  0.4002403    0.00000       Uiso       1.00
      C108          C  0.2747936  0.4849432  0.4002403    0.00000       Uiso       1.00
      C109          C  0.2305042  0.4610015  0.7176045    0.00000       Uiso       1.00
      C110          C  0.5389987  0.7695034  0.7176045    0.00000       Uiso       1.00
      C111          C  0.2304969  0.7694960  0.7176045    0.00000       Uiso       1.00
      C112          C  0.7694960  0.5389987  0.7176045    0.00000       Uiso       1.00
      C113          C  0.4610015  0.2304969  0.7176045    0.00000       Uiso       1.00
      C114          C  0.7695033  0.2305042  0.7176045    0.00000       Uiso       1.00
        H1          H  0.4271529  0.4594301  0.1891427    0.00000       Uiso       1.00
        H2          H  0.3629981  0.4593236  0.1866769    0.00000       Uiso       1.00
        H3          H  0.3814053  0.4974752  0.8334309    0.00000       Uiso       1.00
        H4          H  0.4466884  0.4996181  0.8315820    0.00000       Uiso       1.00
        H5          H  0.4516232  0.4228121  0.8093340    0.00000       Uiso       1.00
        H6          H  0.4501455  0.3581328  0.8073609    0.00000       Uiso       1.00
        H7          H  0.5049044  0.3852678  0.1928791    0.00000       Uiso       1.00
        H8          H  0.5063009  0.4499101  0.1958803    0.00000       Uiso       1.00
        H9          H  0.5052474  0.2519623  0.1392531    0.00000       Uiso       1.00
       H10          H  0.2243504  0.4491096  0.8684205    0.00000       Uiso       1.00
       H11          H  0.5405701  0.9677234  0.1891427    0.00000       Uiso       1.00
       H12          H  0.5406765  0.9036750  0.1866769    0.00000       Uiso       1.00
       H13          H  0.5025249  0.8839307  0.8334309    0.00000       Uiso       1.00
       H14          H  0.5003820  0.9470708  0.8315820    0.00000       Uiso       1.00
       H15          H  0.5771881  0.0288107  0.8093340    0.00000       Uiso       1.00
       H16          H  0.6418673  0.0920123  0.8073609    0.00000       Uiso       1.00
       H17          H  0.6147324  0.1196362  0.1928791    0.00000       Uiso       1.00
       H18          H  0.5500901  0.0563904  0.1958803    0.00000       Uiso       1.00
       H19          H  0.7480379  0.2532846  0.1392531    0.00000       Uiso       1.00
       H20          H  0.5508906  0.7752414  0.8684205    0.00000       Uiso       1.00
       H21          H  0.0322768  0.5728472  0.1891427    0.00000       Uiso       1.00
       H22          H  0.0963252  0.6370021  0.1866769    0.00000       Uiso       1.00
       H23          H  0.1160695  0.6185948  0.8334309    0.00000       Uiso       1.00
       H24          H  0.0529293  0.5533118  0.8315820    0.00000       Uiso       1.00
       H25          H  0.9711895  0.5483770  0.8093340    0.00000       Uiso       1.00
       H26          H  0.9079879  0.5498546  0.8073609    0.00000       Uiso       1.00
       H27          H  0.8803639  0.4950957  0.1928791    0.00000       Uiso       1.00
       H28          H  0.9436098  0.4936993  0.1958803    0.00000       Uiso       1.00
       H29          H  0.7467155  0.4947528  0.1392531    0.00000       Uiso       1.00
       H30          H  0.2247588  0.7756498  0.8684205    0.00000       Uiso       1.00
       H31          H  0.5728472  0.5405700  0.1891427    0.00000       Uiso       1.00
       H32          H  0.6370021  0.5406765  0.1866769    0.00000       Uiso       1.00
       H33          H  0.6185948  0.5025249  0.8334309    0.00000       Uiso       1.00
       H34          H  0.5533118  0.5003820  0.8315820    0.00000       Uiso       1.00
       H35          H  0.5483770  0.5771880  0.8093340    0.00000       Uiso       1.00
       H36          H  0.5498546  0.6418673  0.8073609    0.00000       Uiso       1.00
       H37          H  0.4950957  0.6147323  0.1928791    0.00000       Uiso       1.00
       H38          H  0.4936993  0.5500901  0.1958803    0.00000       Uiso       1.00
       H39          H  0.4947528  0.7480379  0.1392531    0.00000       Uiso       1.00
       H40          H  0.7756498  0.5508906  0.8684205    0.00000       Uiso       1.00
       H41          H  0.4594301  0.0322768  0.1891427    0.00000       Uiso       1.00
       H42          H  0.4593236  0.0963252  0.1866769    0.00000       Uiso       1.00
       H43          H  0.4974752  0.1160695  0.8334309    0.00000       Uiso       1.00
       H44          H  0.4996181  0.0529293  0.8315820    0.00000       Uiso       1.00
       H45          H  0.4228121  0.9711895  0.8093340    0.00000       Uiso       1.00
       H46          H  0.3581328  0.9079879  0.8073609    0.00000       Uiso       1.00
       H47          H  0.3852678  0.8803639  0.1928791    0.00000       Uiso       1.00
       H48          H  0.4499101  0.9436098  0.1958803    0.00000       Uiso       1.00
       H49          H  0.2519623  0.7467155  0.1392531    0.00000       Uiso       1.00
       H50          H  0.4491096  0.2247588  0.8684205    0.00000       Uiso       1.00
       H51          H  0.9677234  0.4271529  0.1891427    0.00000       Uiso       1.00
       H52          H  0.9036750  0.3629980  0.1866769    0.00000       Uiso       1.00
       H53          H  0.8839307  0.3814053  0.8334309    0.00000       Uiso       1.00
       H54          H  0.9470708  0.4466884  0.8315820    0.00000       Uiso       1.00
       H55          H  0.0288107  0.4516232  0.8093340    0.00000       Uiso       1.00
       H56          H  0.0920123  0.4501455  0.8073609    0.00000       Uiso       1.00
       H57          H  0.1196362  0.5049044  0.1928791    0.00000       Uiso       1.00
       H58          H  0.0563904  0.5063009  0.1958803    0.00000       Uiso       1.00
       H59          H  0.2532846  0.5052474  0.1392531    0.00000       Uiso       1.00
       H60          H  0.7752413  0.2243504  0.8684205    0.00000       Uiso       1.00
