data_TpPa-1
_audit_creation_date              0000-00-00
_audit_creation_method            'LanYouShi'
_symmetry_space_group_name_H-M    'P1'
_cell_length_a                    22.5559998
_cell_length_b                    22.5559998
_cell_length_c                    3.4000001
_cell_angle_alpha                 90.0000000
_cell_angle_beta                  90.0000000
_cell_angle_gamma                 120.0000000
loop_
_atom_site_label
_atom_site_type_symbol
_atom_site_fract_x
_atom_site_fract_y
_atom_site_fract_z
_atom_site_U_iso_or_equiv
_atom_site_adp_type
_atom_site_occupancy
        O1          O  0.2835500  0.5270900  0.5000000    0.00000       Uiso       1.00
        N1          N  0.4112900  0.5521200  0.5000000    0.00000       Uiso       1.00
        C1          C  0.3069500  0.5914600  0.5000000    0.00000       Uiso       1.00
        C2          C  0.3811300  0.6406300  0.5000000    0.00000       Uiso       1.00
        C3          C  0.4279700  0.6178401  0.5000000    0.00000       Uiso       1.00
        C4          C  0.4548100  0.5270400  0.5000000    0.00000       Uiso       1.00
        C5          C  0.4293600  0.4559000  0.5000000    0.00000       Uiso       1.00
        C6          C  0.5267400  0.5706500  0.5000000    0.00000       Uiso       1.00
        H1          H  0.3735300  0.4204300  0.5000000    0.00000       Uiso       1.00
        H2          H  0.4837000  0.6559700  0.5000000    0.00000       Uiso       1.00
        H3          H  0.5489300  0.6268500  0.5000000    0.00000       Uiso       1.00
        H4          H  0.3575700  0.5174400  0.5000000    0.00000       Uiso       1.00
        O2          O  0.4729100  0.7564600  0.5000000    0.00000       Uiso       1.00
        N2          N  0.4478800  0.8591700  0.5000000    0.00000       Uiso       1.00
        C7          C  0.4085400  0.7154900  0.5000000    0.00000       Uiso       1.00
        C8          C  0.3593700  0.7405000  0.5000000    0.00000       Uiso       1.00
        C9          C  0.3821600  0.8101300  0.5000000    0.00000       Uiso       1.00
       C10          C  0.4729600  0.9277700  0.5000000    0.00000       Uiso       1.00
       C11          C  0.5441000  0.9734600  0.5000000    0.00000       Uiso       1.00
       C12          C  0.4293500  0.9560900  0.5000000    0.00000       Uiso       1.00
        H5          H  0.5795700  0.9531000  0.5000000    0.00000       Uiso       1.00
        H6          H  0.3440300  0.8277301  0.5000000    0.00000       Uiso       1.00
        H7          H  0.3731500  0.9220800  0.5000000    0.00000       Uiso       1.00
        H8          H  0.4825600  0.8401300  0.5000000    0.00000       Uiso       1.00
        O3          O  0.2435400  0.7164500  0.5000000    0.00000       Uiso       1.00
        N3          N  0.1408300  0.5887100  0.5000000    0.00000       Uiso       1.00
       C13          C  0.2845100  0.6930500  0.5000000    0.00000       Uiso       1.00
       C14          C  0.2595000  0.6188700  0.5000000    0.00000       Uiso       1.00
       C15          C  0.1898700  0.5720300  0.5000000    0.00000       Uiso       1.00
       C16          C  0.0722300  0.5451900  0.5000000    0.00000       Uiso       1.00
       C17          C  0.0265400  0.5706400  0.5000000    0.00000       Uiso       1.00
       C18          C  0.0439100  0.4732600  0.5000000    0.00000       Uiso       1.00
        H9          H  0.0469000  0.6264700  0.5000000    0.00000       Uiso       1.00
       H10          H  0.1722700  0.5163000  0.5000000    0.00000       Uiso       1.00
       H11          H  0.0779200  0.4510700  0.5000000    0.00000       Uiso       1.00
       H12          H  0.1598700  0.6424300  0.5000000    0.00000       Uiso       1.00
        O4          O  0.7164500  0.4729100  0.5000000    0.00000       Uiso       1.00
        N4          N  0.5887100  0.4478800  0.5000000    0.00000       Uiso       1.00
       C19          C  0.6930500  0.4085400  0.5000000    0.00000       Uiso       1.00
       C20          C  0.6188700  0.3593700  0.5000000    0.00000       Uiso       1.00
       C21          C  0.5720300  0.3821600  0.5000000    0.00000       Uiso       1.00
       C22          C  0.5451900  0.4729600  0.5000000    0.00000       Uiso       1.00
       C23          C  0.5706400  0.5441000  0.5000000    0.00000       Uiso       1.00
       C24          C  0.4732600  0.4293500  0.5000000    0.00000       Uiso       1.00
       H13          H  0.6264700  0.5795700  0.5000000    0.00000       Uiso       1.00
       H14          H  0.5163000  0.3440300  0.5000000    0.00000       Uiso       1.00
       H15          H  0.4510700  0.3731500  0.5000000    0.00000       Uiso       1.00
       H16          H  0.6424300  0.4825600  0.5000000    0.00000       Uiso       1.00
        O5          O  0.5270900  0.2435400  0.5000000    0.00000       Uiso       1.00
        N5          N  0.5521200  0.1408300  0.5000000    0.00000       Uiso       1.00
       C25          C  0.5914600  0.2845100  0.5000000    0.00000       Uiso       1.00
       C26          C  0.6406300  0.2595000  0.5000000    0.00000       Uiso       1.00
       C27          C  0.6178400  0.1898700  0.5000000    0.00000       Uiso       1.00
       C28          C  0.5270400  0.0722300  0.5000000    0.00000       Uiso       1.00
       C29          C  0.4559000  0.0265400  0.5000000    0.00000       Uiso       1.00
       C30          C  0.5706500  0.0439100  0.5000000    0.00000       Uiso       1.00
       H17          H  0.4204300  0.0469000  0.5000000    0.00000       Uiso       1.00
       H18          H  0.6559700  0.1722700  0.5000000    0.00000       Uiso       1.00
       H19          H  0.6268500  0.0779200  0.5000000    0.00000       Uiso       1.00
       H20          H  0.5174400  0.1598700  0.5000000    0.00000       Uiso       1.00
        O6          O  0.7564600  0.2835500  0.5000000    0.00000       Uiso       1.00
        N6          N  0.8591700  0.4112900  0.5000000    0.00000       Uiso       1.00
       C31          C  0.7154900  0.3069500  0.5000000    0.00000       Uiso       1.00
       C32          C  0.7405000  0.3811300  0.5000000    0.00000       Uiso       1.00
       C33          C  0.8101300  0.4279700  0.5000000    0.00000       Uiso       1.00
       C34          C  0.9277700  0.4548100  0.5000000    0.00000       Uiso       1.00
       C35          C  0.9734600  0.4293600  0.5000000    0.00000       Uiso       1.00
       C36          C  0.9560900  0.5267400  0.5000000    0.00000       Uiso       1.00
       H21          H  0.9531000  0.3735300  0.5000000    0.00000       Uiso       1.00
       H22          H  0.8277300  0.4837000  0.5000000    0.00000       Uiso       1.00
       H23          H  0.9220800  0.5489300  0.5000000    0.00000       Uiso       1.00
       H24          H  0.8401300  0.3575700  0.5000000    0.00000       Uiso       1.00
