data_TpPA-NO2
_audit_creation_date              0000-00-00
_audit_creation_method            'LanYouShi'
_symmetry_space_group_name_H-M    'P1'
_cell_length_a                    21.7999992
_cell_length_b                    21.7999992
_cell_length_c                    3.2400000
_cell_angle_alpha                 90.0000000
_cell_angle_beta                  90.0000000
_cell_angle_gamma                 120.0000000
loop_
_atom_site_label
_atom_site_type_symbol
_atom_site_fract_x
_atom_site_fract_y
_atom_site_fract_z
_atom_site_U_iso_or_equiv
_atom_site_adp_type
_atom_site_occupancy
        C1          C  0.5402700  0.8721601  0.4816700    0.00000       Uiso       1.00
       C10          C  0.2103500  0.6967601  0.4816700    0.00000       Uiso       1.00
       C11          C  0.1826600  0.7412800  0.4816700    0.00000       Uiso       1.00
       C12          C  0.2258900  0.8132501  0.4816700    0.00000       Uiso       1.00
       C13          C  0.2961900  0.8400100  0.4816700    0.00000       Uiso       1.00
       C14          C  0.0628000  0.6535801  0.4816700    0.00000       Uiso       1.00
       C15          C -0.0051400  0.6406701  0.4816700    0.00000       Uiso       1.00
       C16          C  0.9691001  1.6786401  0.4816700    0.00000       Uiso       1.00
       C17          C  0.8979900  1.6626002  0.4816700    0.00000       Uiso       1.00
       C18          C  0.8419101  1.5922801  0.4816700    0.00000       Uiso       1.00
       C19          C  0.8591201  1.5375501  0.4816700    0.00000       Uiso       1.00
        C2          C  0.5110000  0.9181101  0.4816700    0.00000       Uiso       1.00
       C20          C  0.9299300  1.5511000  0.4816700    0.00000       Uiso       1.00
       C21          C  0.8052300  1.4700800  0.4816700    0.00000       Uiso       1.00
       C22          C  0.7745600  1.3496701  0.4816700    0.00000       Uiso       1.00
       C23          C  0.7033600  1.3231300  0.4816700    0.00000       Uiso       1.00
       C24          C  0.8840400  1.7173700  0.4816700    0.00000       Uiso       1.00
       C25          C  0.7951301  1.7502501  0.4816700    0.00000       Uiso       1.00
       C26          C  0.8389400  1.8213201  0.4816700    0.00000       Uiso       1.00
       C27          C  0.6710200  1.0909600  0.4816700    0.00000       Uiso       1.00
       C28          C  0.6883300  1.2064199  0.4816700    0.00000       Uiso       1.00
       C29          C  0.7610100  1.2352300  0.4816700    0.00000       Uiso       1.00
        C3          C  0.5531300  0.9928101  0.4816700    0.00000       Uiso       1.00
       C30          C  0.6415400  0.8590301  0.4816700    0.00000       Uiso       1.00
       C31          C  0.7384700  0.8391800  0.4816700    0.00000       Uiso       1.00
       C32          C  0.6954500  0.7666100  0.4816700    0.00000       Uiso       1.00
       C33          C  0.8111601  0.8656901  0.4816700    0.00000       Uiso       1.00
       C34          C  0.6603300  1.2520601  0.4816700    0.00000       Uiso       1.00
       C35          C  0.8034400  1.3054200  0.4816700    0.00000       Uiso       1.00
       C36          C  0.7230300  0.7229801  0.4816700    0.00000       Uiso       1.00
        C4          C  0.6274000  1.0209900  0.4816700    0.00000       Uiso       1.00
        C5          C  0.6601400  0.9777700  0.4816700    0.00000       Uiso       1.00
        C6          C  0.6151401  0.9037300  0.4816700    0.00000       Uiso       1.00
        C7          C  0.4407900  0.8925501  0.4816700    0.00000       Uiso       1.00
        C8          C  0.3262600  0.7964401  0.4816700    0.00000       Uiso       1.00
        C9          C  0.2816600  0.7239000  0.4816700    0.00000       Uiso       1.00
        H1          H  0.3294200  0.8972701  0.4816700    0.00000       Uiso       1.00
       H10          H  0.7275900  1.1080700  0.4816700    0.00000       Uiso       1.00
       H11          H  0.8964000  1.8454200  0.4816700    0.00000       Uiso       1.00
       H12          H  0.9279500  1.7716200  0.4816700    0.00000       Uiso       1.00
       H13          H  0.5908100  1.1118900  0.4816700    0.00000       Uiso       1.00
       H14          H  0.7411401  0.9376301  0.4816700    0.00000       Uiso       1.00
       H15          H  0.4219000  0.7927200  0.4816700    0.00000       Uiso       1.00
       H16          H  0.0892100  0.7538700  0.4816700    0.00000       Uiso       1.00
       H17          H  0.8788000  1.4419800  0.4816700    0.00000       Uiso       1.00
       H18          H  0.7840600  1.6450700  0.4816700    0.00000       Uiso       1.00
       H19          H  0.2018500  0.8474200  0.4816700    0.00000       Uiso       1.00
        H2          H  0.4226900  0.9318000  0.4816700    0.00000       Uiso       1.00
       H20          H  0.6893200  1.6655800  0.4816700    0.00000       Uiso       1.00
       H21          H  0.8609000  1.3285201  0.4816700    0.00000       Uiso       1.00
        H3          H  0.6781400  1.3562100  0.4816700    0.00000       Uiso       1.00
        H4          H  0.7506301  1.4602201  0.4816700    0.00000       Uiso       1.00
        H5          H  0.6382900  0.7437000  0.4816700    0.00000       Uiso       1.00
        H6          H  0.6028700  0.8027700  0.4816700    0.00000       Uiso       1.00
        H7          H  0.1781100  0.6393701  0.4816700    0.00000       Uiso       1.00
        H8          H  0.0735800  0.6090700  0.4816700    0.00000       Uiso       1.00
        H9          H  0.7850500  1.2012700  0.4816700    0.00000       Uiso       1.00
        N1          N  0.3968800  0.8247901  0.4816700    0.00000       Uiso       1.00
        N2          N  0.7094901  0.8816301  0.4816700    0.00000       Uiso       1.00
        N3          N  0.6470800  1.1359100  0.4816700    0.00000       Uiso       1.00
        N4          N  0.8188700  1.7033100  0.4816700    0.00000       Uiso       1.00
        N5          N  0.8205500  1.4193900  0.4816700    0.00000       Uiso       1.00
        N6          N  0.1127400  0.7183200  0.4816700    0.00000       Uiso       1.00
        N7          N  0.3063800  0.6734300  0.4816700    0.00000       Uiso       1.00
        N8          N  0.8609000  0.9395401  0.4816700    0.00000       Uiso       1.00
        N9          N  0.5860700  1.2284600  0.4816700    0.00000       Uiso       1.00
        O1          O  0.0282900  0.7609300  0.4816700    0.00000       Uiso       1.00
       O10          O  0.8383501  0.9814700  0.4816700    0.00000       Uiso       1.00
       O11          O  0.5675700  1.2733200  0.4816700    0.00000       Uiso       1.00
       O12          O  0.5452200  1.1649500  0.4816700    0.00000       Uiso       1.00
        O2          O  0.9454600  1.5021100  0.4816700    0.00000       Uiso       1.00
        O3          O  0.7782201  1.5778902  0.4816700    0.00000       Uiso       1.00
        O4          O  0.5255401  1.0313301  0.4816700    0.00000       Uiso       1.00
        O5          O  0.7253100  1.0043200  0.4816700    0.00000       Uiso       1.00
        O6          O  0.5026900  0.8070800  0.4816700    0.00000       Uiso       1.00
        O7          O  0.3700700  0.6953101  0.4816700    0.00000       Uiso       1.00
        O8          O  0.2624800  0.6111600  0.4816700    0.00000       Uiso       1.00
        O9          O  0.9233000  0.9567500  0.4816700    0.00000       Uiso       1.00
