data_BLP-2H-AA
_audit_creation_date              0000-00-00
_audit_creation_method            'LanYouShi'
_symmetry_space_group_name_H-M    'P1'
_cell_length_a                    15.2904997
_cell_length_b                    15.2904997
_cell_length_c                    3.4579000
_cell_angle_alpha                 90.0000000
_cell_angle_beta                  90.0000000
_cell_angle_gamma                 120.0000000
loop_
_atom_site_label
_atom_site_type_symbol
_atom_site_fract_x
_atom_site_fract_y
_atom_site_fract_z
_atom_site_U_iso_or_equiv
_atom_site_adp_type
_atom_site_occupancy
        B1          B  0.4404000  0.7202000  0.0000000    0.00000       Uiso       1.00
        H1          H  0.5272000  0.7636000  0.0000000    0.00000       Uiso       1.00
        B2          B  0.2798000  0.7202000  0.0000000    0.00000       Uiso       1.00
        H2          H  0.2364000  0.7636000  0.0000000    0.00000       Uiso       1.00
        B3          B  0.2798000  0.5596000  0.0000000    0.00000       Uiso       1.00
        H3          H  0.2364000  0.4728000  0.0000000    0.00000       Uiso       1.00
        C1          C  0.5617000  0.2808500  0.0000000    0.00000       Uiso       1.00
        C2          C  0.7191501  0.2808500  0.0000000    0.00000       Uiso       1.00
        C3          C  0.7191500  0.4383000  0.0000000    0.00000       Uiso       1.00
        C4          C  0.6126000  0.2252000  0.0000000    0.00000       Uiso       1.00
        H4          H  0.7591000  0.5182000  0.0000000    0.00000       Uiso       1.00
        C5          C  0.7748000  0.3874000  0.0000000    0.00000       Uiso       1.00
        H5          H  0.4818000  0.2409000  0.0000000    0.00000       Uiso       1.00
        C6          C  0.6126000  0.3874000  0.0000000    0.00000       Uiso       1.00
        H6          H  0.7591000  0.2409000  0.0000000    0.00000       Uiso       1.00
        C7          C  0.5523000  0.6044000  0.0000000    0.00000       Uiso       1.00
        C8          C  0.6049000  0.5515000  0.0000000    0.00000       Uiso       1.00
        H7          H  0.4019000  0.3143000  0.0000000    0.00000       Uiso       1.00
        H8          H  0.3151000  0.3999000  0.0000000    0.00000       Uiso       1.00
        C9          C  0.3956000  0.9479001  0.0000000    0.00000       Uiso       1.00
       C10          C  0.4485000  0.0534000  0.0000000    0.00000       Uiso       1.00
        H9          H  0.6857000  0.0876000  0.0000000    0.00000       Uiso       1.00
       H10          H  0.6001000  0.9152001  0.0000000    0.00000       Uiso       1.00
       C11          C  0.0521000  0.4477000  0.0000000    0.00000       Uiso       1.00
       C12          C  0.9466000  0.3951000  0.0000000    0.00000       Uiso       1.00
       H11          H  0.9124001  0.5981000  0.0000000    0.00000       Uiso       1.00
       H12          H  0.0848000  0.6849000  0.0000000    0.00000       Uiso       1.00
       C13          C  0.3956000  0.4477000  0.0000000    0.00000       Uiso       1.00
       C14          C  0.4485000  0.3951000  0.0000000    0.00000       Uiso       1.00
       H13          H  0.6857000  0.5981000  0.0000000    0.00000       Uiso       1.00
       H14          H  0.6001000  0.6849000  0.0000000    0.00000       Uiso       1.00
       C15          C  0.0521000  0.6044000  0.0000000    0.00000       Uiso       1.00
       C16          C  0.9466000  0.5515000  0.0000000    0.00000       Uiso       1.00
       H15          H  0.9124000  0.3143000  0.0000000    0.00000       Uiso       1.00
       H16          H  0.0848000  0.3999000  0.0000000    0.00000       Uiso       1.00
       C17          C  0.5523000  0.9479001  0.0000000    0.00000       Uiso       1.00
       C18          C  0.6049000  0.0534000  0.0000000    0.00000       Uiso       1.00
       H17          H  0.4019000  0.0876000  0.0000000    0.00000       Uiso       1.00
       H18          H  0.3151000  0.9152001  0.0000000    0.00000       Uiso       1.00
       C19          C  0.5549000  0.4451000  0.0000000    0.00000       Uiso       1.00
       C20          C  0.4451000  0.5549000  0.0000000    0.00000       Uiso       1.00
       C21          C  0.5549000  0.1098000  0.0000000    0.00000       Uiso       1.00
       C22          C  0.4451000  0.8902000  0.0000000    0.00000       Uiso       1.00
       C23          C  0.8902000  0.4451000  0.0000000    0.00000       Uiso       1.00
       C24          C  0.1098000  0.5549000  0.0000000    0.00000       Uiso       1.00
        N1          N  0.3890000  0.7780000  0.0000000    0.00000       Uiso       1.00
        N2          N  0.2220000  0.6110000  0.0000000    0.00000       Uiso       1.00
        N3          N  0.3890000  0.6110000  0.0000000    0.00000       Uiso       1.00
