data_TpPa-SO3H
_audit_creation_date              0000-00-00
_audit_creation_method            'LanYouShi'
_symmetry_space_group_name_H-M    'P1'
_cell_length_a                    23.2823009
_cell_length_b                    23.2823009
_cell_length_c                    3.3000000
_cell_angle_alpha                 90.0000000
_cell_angle_beta                  90.0000000
_cell_angle_gamma                 120.0000000
loop_
_atom_site_label
_atom_site_type_symbol
_atom_site_fract_x
_atom_site_fract_y
_atom_site_fract_z
_atom_site_U_iso_or_equiv
_atom_site_adp_type
_atom_site_occupancy
        C1          C  0.4152519  0.6140642  0.6123778    0.00000       Uiso       1.00
        C1          C  0.5847476  0.3859362  0.6123778    0.00000       Uiso       1.00
        N1          N  0.3949048  0.5415007  0.6123778    0.00000       Uiso       1.00
        N1          N  0.6050947  0.4584998  0.6123778    0.00000       Uiso       1.00
        C1          C  0.4470520  0.5210898  0.6123778    0.00000       Uiso       1.00
        C2          C  0.5529475  0.4789107  0.6123778    0.00000       Uiso       1.00
        C3          C  0.4258593  0.4469670  0.6123778    0.00000       Uiso       1.00
        C4          C  0.5741401  0.5530335  0.6123778    0.00000       Uiso       1.00
        C5          C  0.4788621  0.4258710  0.6123778    0.00000       Uiso       1.00
        C6          C  0.5211374  0.5741295  0.6123778    0.00000       Uiso       1.00
        H1          H  0.4700519  0.6534708  0.6123778    0.00000       Uiso       1.00
        H2          H  0.5299476  0.3465296  0.6123778    0.00000       Uiso       1.00
        H3          H  0.6288529  0.5921019  0.6123778    0.00000       Uiso       1.00
        H4          H  0.4632164  0.3709406  0.6123778    0.00000       Uiso       1.00
        H5          H  0.5367830  0.6290599  0.6123778    0.00000       Uiso       1.00
        H6          H  0.6584270  0.4968732  0.6123778    0.00000       Uiso       1.00
        H7          H  0.3415725  0.5031272  0.6123778    0.00000       Uiso       1.00
        S1          S  0.3387139  0.3847396  0.6123778    0.00000       Uiso       1.00
        O1          O  0.3317740  0.3201446  0.6123778    0.00000       Uiso       1.00
        O2          O  0.3077675  0.3925052  0.2880915    0.00000       Uiso       1.00
        O3          O  0.3053812  0.3931001  0.9615867    0.00000       Uiso       1.00
        H8          H  0.2591499  0.3601280  0.9617154    0.00000       Uiso       1.00
       C25          C  0.6955889  0.4024698  0.6123778    0.00000       Uiso       1.00
       C26          C  0.6254837  0.3629056  0.6123778    0.00000       Uiso       1.00
       C25          C  0.3044105  0.5975306  0.6123778    0.00000       Uiso       1.00
       C26          C  0.3745158  0.6370949  0.6123778    0.00000       Uiso       1.00
        O1          O  0.7204428  0.4595814  0.6123778    0.00000       Uiso       1.00
        O1          O  0.2795566  0.5404190  0.6123778    0.00000       Uiso       1.00
        C1          C  0.3859358  0.8011876  0.6123778    0.00000       Uiso       1.00
        C1          C  0.6140637  1.1988113  0.6123778    0.00000       Uiso       1.00
        N1          N  0.4584993  0.8534041  0.6123778    0.00000       Uiso       1.00
        N1          N  0.5415002  1.1465949  0.6123778    0.00000       Uiso       1.00
        C1          C  0.4789102  0.9259622  0.6123778    0.00000       Uiso       1.00
        C2          C  0.5210893  1.0740367  0.6123778    0.00000       Uiso       1.00
        C3          C  0.5530329  0.9788922  0.6123778    0.00000       Uiso       1.00
        C4          C  0.4469665  1.0211066  0.6123778    0.00000       Uiso       1.00
        C5          C  0.5741290  1.0529912  0.6123778    0.00000       Uiso       1.00
        C6          C  0.4258705  0.9470078  0.6123778    0.00000       Uiso       1.00
        H1          H  0.3465291  0.8165810  0.6123778    0.00000       Uiso       1.00
        H2          H  0.6534703  1.1834178  0.6123778    0.00000       Uiso       1.00
        H3          H  0.4078981  1.0367510  0.6123778    0.00000       Uiso       1.00
        H4          H  0.6290594  1.0922757  0.6123778    0.00000       Uiso       1.00
        H5          H  0.3709401  0.9077231  0.6123778    0.00000       Uiso       1.00
        H6          H  0.5031267  1.1615536  0.6123778    0.00000       Uiso       1.00
        H7          H  0.4968727  0.8384452  0.6123778    0.00000       Uiso       1.00
        S1          S  0.6152604  0.9539743  0.6123778    0.00000       Uiso       1.00
        O1          O  0.6798553  1.0116293  0.6123778    0.00000       Uiso       1.00
        O2          O  0.6074947  0.9152622  0.2880915    0.00000       Uiso       1.00
        O3          O  0.6068998  0.9122810  0.9615867    0.00000       Uiso       1.00
        H8          H  0.6398720  0.8990219  0.9617154    0.00000       Uiso       1.00
       C25          C  0.5975301  1.2931191  0.6123778    0.00000       Uiso       1.00
       C26          C  0.6370943  1.2625780  0.6123778    0.00000       Uiso       1.00
       C25          C  0.4024693  0.7068799  0.6123778    0.00000       Uiso       1.00
       C26          C  0.3629051  0.7374209  0.6123778    0.00000       Uiso       1.00
        O1          O  0.5404185  1.2608614  0.6123778    0.00000       Uiso       1.00
        O1          O  0.4595809  0.7391375  0.6123778    0.00000       Uiso       1.00
        C1          C  0.1988123  0.5847481  0.6123778    0.00000       Uiso       1.00
        C1          C -0.1988113  0.4152524  0.6123778    0.00000       Uiso       1.00
        N1          N  0.1465959  0.6050951  0.6123778    0.00000       Uiso       1.00
        N1          N -0.1465949  0.3949053  0.6123778    0.00000       Uiso       1.00
        C1          C  0.0740378  0.5529479  0.6123778    0.00000       Uiso       1.00
        C2          C -0.0740367  0.4470525  0.6123778    0.00000       Uiso       1.00
        C3          C  0.0211077  0.5741407  0.6123778    0.00000       Uiso       1.00
        C4          C -0.0211067  0.4258598  0.6123778    0.00000       Uiso       1.00
        C5          C -0.0529911  0.5211379  0.6123778    0.00000       Uiso       1.00
        C6          C  0.0529921  0.4788626  0.6123778    0.00000       Uiso       1.00
        H1          H  0.1834189  0.5299481  0.6123778    0.00000       Uiso       1.00
        H2          H -0.1834179  0.4700524  0.6123778    0.00000       Uiso       1.00
        H3          H -0.0367511  0.3711470  0.6123778    0.00000       Uiso       1.00
        H4          H -0.0922758  0.5367836  0.6123778    0.00000       Uiso       1.00
        H5          H  0.0922768  0.4632169  0.6123778    0.00000       Uiso       1.00
        H6          H -0.1615537  0.3415730  0.6123778    0.00000       Uiso       1.00
        H7          H  0.1615547  0.6584275  0.6123778    0.00000       Uiso       1.00
        S1          S  0.0460257  0.6612860  0.6123778    0.00000       Uiso       1.00
        O1          O -0.0116294  0.6682259  0.6123778    0.00000       Uiso       1.00
        O2          O  0.0847377  0.6922324  0.2880915    0.00000       Uiso       1.00
        O3          O  0.0877190  0.6946188  0.9615867    0.00000       Uiso       1.00
        H8          H  0.1009781  0.7408501  0.9617154    0.00000       Uiso       1.00
       C25          C -0.2931191  0.3044110  0.6123778    0.00000       Uiso       1.00
       C26          C -0.2625781  0.3745163  0.6123778    0.00000       Uiso       1.00
       C25          C  0.2931201  0.6955895  0.6123778    0.00000       Uiso       1.00
       C26          C  0.2625791  0.6254842  0.6123778    0.00000       Uiso       1.00
        O1          O -0.2608614  0.2795571  0.6123778    0.00000       Uiso       1.00
        O1          O  0.2608624  0.7204434  0.6123778    0.00000       Uiso       1.00
