data_TT-COF-FF
_audit_creation_date              0000-00-00
_audit_creation_method            'LanYouShi'
_symmetry_space_group_name_H-M    'P1'
_cell_length_a                    32.8400002
_cell_length_b                    32.8400002
_cell_length_c                    3.4500000
_cell_angle_alpha                 90.0000000
_cell_angle_beta                  90.0000000
_cell_angle_gamma                 120.0000000
loop_
_atom_site_label
_atom_site_type_symbol
_atom_site_fract_x
_atom_site_fract_y
_atom_site_fract_z
_atom_site_U_iso_or_equiv
_atom_site_adp_type
_atom_site_occupancy
        O1          O  0.3862700  0.5447400  0.5000000    0.00000       Uiso       1.00
        C1          C  0.3361000  0.5809800  0.5000000    0.00000       Uiso       1.00
        C2          C  0.3349300  0.6232899  0.5000000    0.00000       Uiso       1.00
        C3          C  0.3794400  0.5830400  0.5000000    0.00000       Uiso       1.00
        B1          B  0.4377300  0.5690000  0.5000000    0.00000       Uiso       1.00
        C4          C  0.4659200  0.5426600  0.5000000    0.00000       Uiso       1.00
        O2          O  0.5397800  0.3796600  0.5000000    0.00000       Uiso       1.00
        C5          C  0.5790200  0.3322300  0.5000000    0.00000       Uiso       1.00
        C6          C  0.6222900  0.3333333  0.5000000    0.00000       Uiso       1.00
        C7          C  0.5792100  0.3746800  0.5000000    0.00000       Uiso       1.00
        S1          S  0.5266300  0.5721900  0.5000000    0.00000       Uiso       1.00
        C8          C  0.5219700  0.5183900  0.5000000    0.00000       Uiso       1.00
        C9          C  0.4439600  0.4938900  0.5000000    0.00000       Uiso       1.00
        H1          H  0.3059601  0.5462721  0.5000000    0.00000       Uiso       1.00
        H2          H  0.5449553  0.3011788  0.5000000    0.00000       Uiso       1.00
        H3          H  0.4064386  0.4696039  0.5000000    0.00000       Uiso       1.00
        O3          O  0.4552600  0.8415300  0.5000000    0.00000       Uiso       1.00
       C10          C  0.4190200  0.7551200  0.5000000    0.00000       Uiso       1.00
       C11          C  0.3767100  0.7116400  0.5000000    0.00000       Uiso       1.00
       C12          C  0.4169600  0.7964000  0.5000000    0.00000       Uiso       1.00
        B2          B  0.4310000  0.8687300  0.5000000    0.00000       Uiso       1.00
       C13          C  0.4573400  0.9232600  0.5000000    0.00000       Uiso       1.00
        O4          O  0.6203400  0.1601200  0.5000000    0.00000       Uiso       1.00
       C14          C  0.6677700  0.2467900  0.5000000    0.00000       Uiso       1.00
       C15          C  0.6666667  0.2889567  0.5000000    0.00000       Uiso       1.00
       C16          C  0.6253200  0.2045300  0.5000000    0.00000       Uiso       1.00
        S2          S  0.4278100  0.9544400  0.5000000    0.00000       Uiso       1.00
       C17          C  0.4816100  0.0035800  0.5000000    0.00000       Uiso       1.00
       C18          C  0.5061100  0.9500700  0.5000000    0.00000       Uiso       1.00
        H4          H  0.4537279  0.7596881  0.5000000    0.00000       Uiso       1.00
        H5          H  0.6988212  0.2437765  0.5000000    0.00000       Uiso       1.00
        H6          H  0.5303960  0.9368346  0.5000000    0.00000       Uiso       1.00
        O5          O  0.1584700  0.6137300  0.5000000    0.00000       Uiso       1.00
       C19          C  0.2448800  0.6639000  0.5000000    0.00000       Uiso       1.00
       C20          C  0.2883600  0.6650700  0.5000000    0.00000       Uiso       1.00
       C21          C  0.2036000  0.6205600  0.5000000    0.00000       Uiso       1.00
        B3          B  0.1312700  0.5622700  0.5000000    0.00000       Uiso       1.00
       C22          C  0.0767400  0.5340800  0.5000000    0.00000       Uiso       1.00
        O6          O  0.8398800  0.4602200  0.5000000    0.00000       Uiso       1.00
       C23          C  0.7532099  0.4209800  0.5000000    0.00000       Uiso       1.00
       C24          C  0.7110433  0.3777100  0.5000000    0.00000       Uiso       1.00
       C25          C  0.7954700  0.4207900  0.5000000    0.00000       Uiso       1.00
        S3          S  0.0455600  0.4733700  0.5000000    0.00000       Uiso       1.00
       C26          C  0.9964200  0.4780300  0.5000000    0.00000       Uiso       1.00
       C27          C  0.0499300  0.5560400  0.5000000    0.00000       Uiso       1.00
        H7          H  0.2403119  0.6940398  0.5000000    0.00000       Uiso       1.00
        H8          H  0.7562236  0.4550447  0.5000000    0.00000       Uiso       1.00
        H9          H  0.0631654  0.5935614  0.5000000    0.00000       Uiso       1.00
        O7          O  0.6137300  0.4552600  0.5000000    0.00000       Uiso       1.00
       C28          C  0.6639000  0.4190200  0.5000000    0.00000       Uiso       1.00
       C29          C  0.6650700  0.3767100  0.5000000    0.00000       Uiso       1.00
       C30          C  0.6205600  0.4169600  0.5000000    0.00000       Uiso       1.00
        B4          B  0.5622700  0.4310000  0.5000000    0.00000       Uiso       1.00
       C31          C  0.5340800  0.4573400  0.5000000    0.00000       Uiso       1.00
        O8          O  0.4602200  0.6203400  0.5000000    0.00000       Uiso       1.00
       C32          C  0.4209800  0.6677700  0.5000000    0.00000       Uiso       1.00
       C33          C  0.3777100  0.6666667  0.5000000    0.00000       Uiso       1.00
       C34          C  0.4207900  0.6253200  0.5000000    0.00000       Uiso       1.00
        S4          S  0.4733700  0.4278100  0.5000000    0.00000       Uiso       1.00
       C35          C  0.4780300  0.4816100  0.5000000    0.00000       Uiso       1.00
       C36          C  0.5560400  0.5061100  0.5000000    0.00000       Uiso       1.00
       H10          H  0.6940398  0.4537279  0.5000000    0.00000       Uiso       1.00
       H11          H  0.4550447  0.6988212  0.5000000    0.00000       Uiso       1.00
       H12          H  0.5935614  0.5303961  0.5000000    0.00000       Uiso       1.00
        O9          O  0.5447400  0.1584700  0.5000000    0.00000       Uiso       1.00
       C37          C  0.5809800  0.2448800  0.5000000    0.00000       Uiso       1.00
       C38          C  0.6232900  0.2883600  0.5000000    0.00000       Uiso       1.00
       C39          C  0.5830400  0.2036000  0.5000000    0.00000       Uiso       1.00
        B5          B  0.5690000  0.1312700  0.5000000    0.00000       Uiso       1.00
       C40          C  0.5426600  0.0767400  0.5000000    0.00000       Uiso       1.00
       O10          O  0.3796600  0.8398800  0.5000000    0.00000       Uiso       1.00
       C41          C  0.3322300  0.7532100  0.5000000    0.00000       Uiso       1.00
       C42          C  0.3333333  0.7110433  0.5000000    0.00000       Uiso       1.00
       C43          C  0.3746800  0.7954701  0.5000000    0.00000       Uiso       1.00
        S5          S  0.5721900  0.0455600  0.5000000    0.00000       Uiso       1.00
       C44          C  0.5183900  0.9964200  0.5000000    0.00000       Uiso       1.00
       C45          C  0.4938900  0.0499300  0.5000000    0.00000       Uiso       1.00
       H13          H  0.5462721  0.2403119  0.5000000    0.00000       Uiso       1.00
       H14          H  0.3011788  0.7562235  0.5000000    0.00000       Uiso       1.00
       H15          H  0.4696039  0.0631654  0.5000000    0.00000       Uiso       1.00
       O11          O  0.8415300  0.3862700  0.5000000    0.00000       Uiso       1.00
       C46          C  0.7551200  0.3361000  0.5000000    0.00000       Uiso       1.00
       C47          C  0.7116400  0.3349300  0.5000000    0.00000       Uiso       1.00
       C48          C  0.7964000  0.3794400  0.5000000    0.00000       Uiso       1.00
        B6          B  0.8687300  0.4377300  0.5000000    0.00000       Uiso       1.00
       C49          C  0.9232600  0.4659200  0.5000000    0.00000       Uiso       1.00
       O12          O  0.1601200  0.5397800  0.5000000    0.00000       Uiso       1.00
       C50          C  0.2467900  0.5790200  0.5000000    0.00000       Uiso       1.00
       C51          C  0.2889567  0.6222900  0.5000000    0.00000       Uiso       1.00
       C52          C  0.2045300  0.5792100  0.5000000    0.00000       Uiso       1.00
        S6          S  0.9544400  0.5266300  0.5000000    0.00000       Uiso       1.00
       C53          C  0.0035800  0.5219700  0.5000000    0.00000       Uiso       1.00
       C54          C  0.9500700  0.4439600  0.5000000    0.00000       Uiso       1.00
       H16          H  0.7596880  0.3059601  0.5000000    0.00000       Uiso       1.00
       H17          H  0.2437765  0.5449553  0.5000000    0.00000       Uiso       1.00
       H18          H  0.9368346  0.4064386  0.5000000    0.00000       Uiso       1.00
