data_TTF-COF
_audit_creation_date              0000-00-00
_audit_creation_method            'LanYouShi'
_symmetry_space_group_name_H-M    'P1'
_cell_length_a                    25.6026993
_cell_length_b                    24.3640995
_cell_length_c                    5.5999999
_cell_angle_alpha                 90.0000000
_cell_angle_beta                  90.0000000
_cell_angle_gamma                 61.5877991
loop_
_atom_site_label
_atom_site_type_symbol
_atom_site_fract_x
_atom_site_fract_y
_atom_site_fract_z
_atom_site_U_iso_or_equiv
_atom_site_adp_type
_atom_site_occupancy
        C1          C  0.3569728  0.4725849  0.8900841    0.00000       Uiso       1.00
        N1          N  0.3712193  0.5259926  0.8885181    0.00000       Uiso       1.00
        C2          C  0.4350294  0.5129818  0.8903341    0.00000       Uiso       1.00
        C3          C  0.4491786  0.5677240  0.8924044    0.00000       Uiso       1.00
        C4          C  0.5142030  0.5547243  0.8955438    0.00000       Uiso       1.00
        H1          H  0.3944485  0.4224079  0.8917810    0.00000       Uiso       1.00
        H2          H  0.4116375  0.6176690  0.8917949    0.00000       Uiso       1.00
        H3          H  0.5247468  0.5952709  0.8974730    0.00000       Uiso       1.00
        C5          C  0.6430547  0.5274191  0.8953459    0.00000       Uiso       1.00
        N2          N  0.6287749  0.4740248  0.8964016    0.00000       Uiso       1.00
        C6          C  0.5649644  0.4870187  0.8955540    0.00000       Uiso       1.00
        C7          C  0.5508183  0.4322623  0.8936642    0.00000       Uiso       1.00
        C8          C  0.4857875  0.4452707  0.8907282    0.00000       Uiso       1.00
        H4          H  0.6056067  0.5776150  0.8947968    0.00000       Uiso       1.00
        H5          H  0.5883497  0.3823237  0.8939987    0.00000       Uiso       1.00
        H6          H  0.4752392  0.4047279  0.8887906    0.00000       Uiso       1.00
        C9          C  0.3569732  0.1704596  0.8953421    0.00000       Uiso       1.00
        N3          N  0.3712198  0.1028055  0.8969082    0.00000       Uiso       1.00
       C10          C  0.4350298  0.0520060  0.8950930    0.00000       Uiso       1.00
       C11          C  0.4491786  0.9831161  0.8930228    0.00000       Uiso       1.00
       C12          C  0.5142031  0.9310913  0.8898842    0.00000       Uiso       1.00
        H7          H  0.3944490  0.1831608  0.8936456    0.00000       Uiso       1.00
        H8          H  0.4116375  0.9707121  0.8936320    0.00000       Uiso       1.00
        H9          H  0.5247468  0.8800008  0.8879551    0.00000       Uiso       1.00
       C13          C  0.6430547  0.8295446  0.8900837    0.00000       Uiso       1.00
        N4          N  0.6287749  0.8972188  0.8890277    0.00000       Uiso       1.00
       C14          C  0.5649645  0.9480354  0.8898746    0.00000       Uiso       1.00
       C15          C  0.5508188  0.0169365  0.8917643    0.00000       Uiso       1.00
       C16          C  0.4857879  0.0689590  0.8946995    0.00000       Uiso       1.00
       H10          H  0.6056068  0.8167968  0.8906323    0.00000       Uiso       1.00
       H11          H  0.5883502  0.0293437  0.8914302    0.00000       Uiso       1.00
       H12          H  0.4752396  0.1200502  0.8966370    0.00000       Uiso       1.00
        S1          S  0.0712195  0.4048873  0.8937495    0.00000       Uiso       1.00
       C17          C  0.0300718  0.4849726  0.8927143    0.00000       Uiso       1.00
       C18          C  0.9699556  0.5150313  0.8927156    0.00000       Uiso       1.00
        S2          S  0.9288081  0.4760935  0.8937527    0.00000       Uiso       1.00
        S3          S  0.9288080  0.5951166  0.8916805    0.00000       Uiso       1.00
        S4          S  0.0712194  0.5239103  0.8916771    0.00000       Uiso       1.00
       C19          C  0.1379333  0.4038026  0.8931876    0.00000       Uiso       1.00
       C20          C  0.1379333  0.4582812  0.8922390    0.00000       Uiso       1.00
       C21          C  0.8620942  0.5417227  0.8931903    0.00000       Uiso       1.00
       C22          C  0.8620942  0.5962013  0.8922418    0.00000       Uiso       1.00
       C23          C  0.1960156  0.3413951  0.8937684    0.00000       Uiso       1.00
       C24          C  0.2090321  0.2981065  0.7079607    0.00000       Uiso       1.00
       C25          C  0.2619442  0.2416114  0.7107565    0.00000       Uiso       1.00
       C26          C  0.3023885  0.2277661  0.8990532    0.00000       Uiso       1.00
       C27          C  0.2894342  0.2709546  1.0846503    0.00000       Uiso       1.00
       C28          C  0.2365407  0.3274569  1.0820267    0.00000       Uiso       1.00
       H13          H  0.1783372  0.3079772  0.5610116    0.00000       Uiso       1.00
       H14          H  0.2714173  0.2086555  0.5663202    0.00000       Uiso       1.00
       H15          H  0.3202865  0.2608421  1.2311401    0.00000       Uiso       1.00
       H16          H  0.2271357  0.3603701  1.2266581    0.00000       Uiso       1.00
       C29          C  0.8040121  0.5373973  0.8937710    0.00000       Uiso       1.00
       C30          C  0.7909955  0.5074682  1.0808533    0.00000       Uiso       1.00
       C31          C  0.7380835  0.5038810  1.0791032    0.00000       Uiso       1.00
       C32          C  0.6976393  0.5301332  0.8905903    0.00000       Uiso       1.00
       C33          C  0.7105936  0.5600248  0.7037209    0.00000       Uiso       1.00
       C34          C  0.7634870  0.5636376  0.7052981    0.00000       Uiso       1.00
       H17          H  0.8216904  0.4869145  1.2279887    0.00000       Uiso       1.00
       H18          H  0.7286104  0.4806648  1.2245175    0.00000       Uiso       1.00
       H19          H  0.6797413  0.5804950  0.5570505    0.00000       Uiso       1.00
       H20          H  0.7728920  0.5868789  0.5596891    0.00000       Uiso       1.00
       C35          C  0.8040120  0.6586090  0.8916605    0.00000       Uiso       1.00
       C36          C  0.7909957  0.7015545  0.7045781    0.00000       Uiso       1.00
       C37          C  0.7380837  0.7580538  0.7063277    0.00000       Uiso       1.00
       C38          C  0.6976393  0.7722459  0.8948401    0.00000       Uiso       1.00
       C39          C  0.7105935  0.7294000  1.0817094    0.00000       Uiso       1.00
       C40          C  0.7634869  0.6728938  1.0801327    0.00000       Uiso       1.00
       H21          H  0.8216907  0.6914132  0.5574432    0.00000       Uiso       1.00
       H22          H  0.7286107  0.7907432  0.5609134    0.00000       Uiso       1.00
       H23          H  0.6797410  0.7397822  1.2283792    0.00000       Uiso       1.00
       H24          H  0.7728917  0.6402475  1.2257417    0.00000       Uiso       1.00
       C41          C  0.1960155  0.4626066  0.8916581    0.00000       Uiso       1.00
       C42          C  0.2090319  0.4928788  1.0774658    0.00000       Uiso       1.00
       C43          C  0.2619438  0.4964619  1.0746697    0.00000       Uiso       1.00
       C44          C  0.3023882  0.4698630  0.8863730    0.00000       Uiso       1.00
       C45          C  0.2894340  0.4396288  0.7007761    0.00000       Uiso       1.00
       C46          C  0.2365405  0.4360199  0.7033997    0.00000       Uiso       1.00
       H25          H  0.1783369  0.5137030  1.2244149    0.00000       Uiso       1.00
       H26          H  0.2714169  0.5199448  1.2191060    0.00000       Uiso       1.00
       H27          H  0.3202863  0.4188889  0.5542862    0.00000       Uiso       1.00
       H28          H  0.2271357  0.4125115  0.5587683    0.00000       Uiso       1.00
