data_TThPP
_audit_creation_date              0000-00-00
_audit_creation_method            'LanYouShi'
_symmetry_space_group_name_H-M    'P1'
_cell_length_a                    24.4206009
_cell_length_b                    6.7645001
_cell_length_c                    24.4213009
_cell_angle_alpha                 90.0000000
_cell_angle_beta                  81.9116974
_cell_angle_gamma                 90.0000000
loop_
_atom_site_label
_atom_site_type_symbol
_atom_site_fract_x
_atom_site_fract_y
_atom_site_fract_z
_atom_site_U_iso_or_equiv
_atom_site_adp_type
_atom_site_occupancy
        C1          C  0.4742800  0.5000002  0.4899323    0.00000       Uiso       1.00
        C2          C  0.0100676  0.5000002  0.0257188    0.00000       Uiso       1.00
        C3          C  0.5257194  0.5000002  0.5100664    0.00000       Uiso       1.00
        C4          C  0.9899318  0.5000002  0.9742798    0.00000       Uiso       1.00
        C5          C  0.5870621  0.5000002  0.5747572    0.00000       Uiso       1.00
        C6          C  0.9252388  0.5000002  0.9129392    0.00000       Uiso       1.00
        C7          C  0.4129374  0.5000002  0.4252415    0.00000       Uiso       1.00
        C8          C  0.0747607  0.5000002  0.0870595    0.00000       Uiso       1.00
        C9          C  0.5321499  0.5000002  0.5660259    0.00000       Uiso       1.00
       C10          C  0.9339706  0.5000002  0.9678497    0.00000       Uiso       1.00
       C11          C  0.4678496  0.5000002  0.4339728    0.00000       Uiso       1.00
       C12          C  0.0660288  0.5000002  0.0321489    0.00000       Uiso       1.00
       C13          C  0.6230499  0.5000002  0.5253445    0.00000       Uiso       1.00
       C14          C  0.9746529  0.5000002  0.8769526    0.00000       Uiso       1.00
       C15          C  0.3769496  0.5000002  0.4746542    0.00000       Uiso       1.00
       C16          C  0.0253466  0.5000002  0.1230461    0.00000       Uiso       1.00
       C17          C  0.9401290  0.5000002  0.6206562    0.00000       Uiso       1.00
       C18          C  0.8793438  0.5000002  0.5598804    0.00000       Uiso       1.00
       C19          C  0.0598705  0.5000002  0.3793425    0.00000       Uiso       1.00
       C20          C  0.1206556  0.5000002  0.4401183    0.00000       Uiso       1.00
       C21          C  0.8869549  0.5000002  0.6504049    0.00000       Uiso       1.00
       C22          C  0.8495933  0.5000002  0.6130507    0.00000       Uiso       1.00
       C23          C  0.1130446  0.5000002  0.3495938    0.00000       Uiso       1.00
       C24          C  0.1504062  0.5000002  0.3869480    0.00000       Uiso       1.00
        H1          H  0.8766899  0.5000002  0.6924312    0.00000       Uiso       1.00
        H2          H  0.8075646  0.5000002  0.6233149    0.00000       Uiso       1.00
        H3          H  0.1233095  0.5000002  0.3075675    0.00000       Uiso       1.00
        H4          H  0.1924349  0.5000002  0.3766838    0.00000       Uiso       1.00
        N1          N  0.0570688  0.5000002  0.5570773    0.00000       Uiso       1.00
        N2          N  0.9429306  0.5000002  0.4429214    0.00000       Uiso       1.00
       C25          C  0.0432717  0.5000002  0.6128426    0.00000       Uiso       1.00
       C26          C  0.8871637  0.5000002  0.4567290    0.00000       Uiso       1.00
       C27          C  0.9567278  0.5000002  0.3871560    0.00000       Uiso       1.00
       C28          C  0.1128358  0.5000002  0.5432696    0.00000       Uiso       1.00
       C29          C  0.0926197  0.5000002  0.6355594    0.00000       Uiso       1.00
       C30          C  0.8644367  0.5000002  0.4073876    0.00000       Uiso       1.00
       C31          C  0.9073797  0.5000002  0.3644392    0.00000       Uiso       1.00
       C32          C  0.1355627  0.5000002  0.5926111    0.00000       Uiso       1.00
        H5          H  0.0969778  0.5000002  0.6765850    0.00000       Uiso       1.00
        H6          H  0.8234071  0.5000002  0.4030387    0.00000       Uiso       1.00
        H7          H  0.9030217  0.5000002  0.3234137    0.00000       Uiso       1.00
        H8          H  0.1765924  0.5000002  0.5969601    0.00000       Uiso       1.00
       C33          C  0.9898743  0.5000002  0.6440749    0.00000       Uiso       1.00
       C34          C  0.8559344  0.5000002  0.5101292    0.00000       Uiso       1.00
       C35          C  0.0101252  0.5000002  0.3559238    0.00000       Uiso       1.00
       C36          C  0.1440650  0.5000002  0.4898695    0.00000       Uiso       1.00
       C37          C  0.9858587  0.5000002  0.7023665    0.00000       Uiso       1.00
       C38          C  0.7976418  0.5000002  0.5141447    0.00000       Uiso       1.00
       C39          C  0.0141407  0.5000002  0.2976321    0.00000       Uiso       1.00
       C40          C  0.2023578  0.5000002  0.4858541    0.00000       Uiso       1.00
       C41          C  0.9839680  0.3198158  0.7317901    0.00000       Uiso       1.00
       C42          C  0.7682166  0.6801825  0.5160348    0.00000       Uiso       1.00
       C43          C  0.0160315  0.3198158  0.2682086    0.00000       Uiso       1.00
       C44          C  0.2317829  0.6801825  0.4839639    0.00000       Uiso       1.00
       C45          C  0.0160315  0.6801845  0.2682086    0.00000       Uiso       1.00
       C46          C  0.2317829  0.3198178  0.4839639    0.00000       Uiso       1.00
       C47          C  0.9839680  0.6801845  0.7317901    0.00000       Uiso       1.00
       C48          C  0.7682166  0.3198178  0.5160348    0.00000       Uiso       1.00
        H9          H  0.9854081  0.1879679  0.7110966    0.00000       Uiso       1.00
       H10          H  0.7889149  0.8120202  0.5145960    0.00000       Uiso       1.00
       H11          H  0.0145914  0.1879679  0.2889021    0.00000       Uiso       1.00
       H12          H  0.2110846  0.8120202  0.4854026    0.00000       Uiso       1.00
       H13          H  0.0145914  0.8120325  0.2889021    0.00000       Uiso       1.00
       H14          H  0.2110846  0.1879801  0.4854026    0.00000       Uiso       1.00
       H15          H  0.9854081  0.8120325  0.7110966    0.00000       Uiso       1.00
       H16          H  0.7889149  0.1879801  0.5145960    0.00000       Uiso       1.00
       C49          C  0.9802806  0.3198957  0.7898245    0.00000       Uiso       1.00
       C50          C  0.7101804  0.6801056  0.5197198    0.00000       Uiso       1.00
       C51          C  0.0197189  0.3198957  0.2101742    0.00000       Uiso       1.00
       C52          C  0.2898190  0.6801056  0.4802788    0.00000       Uiso       1.00
       C53          C  0.0197189  0.6801046  0.2101742    0.00000       Uiso       1.00
       C54          C  0.2898190  0.3198947  0.4802788    0.00000       Uiso       1.00
       C55          C  0.9802806  0.6801046  0.7898245    0.00000       Uiso       1.00
       C56          C  0.7101804  0.3198947  0.5197198    0.00000       Uiso       1.00
       H17          H  0.9792244  0.1882538  0.8105788    0.00000       Uiso       1.00
       H18          H  0.6894265  0.8117489  0.5207756    0.00000       Uiso       1.00
       H19          H  0.0207751  0.1882538  0.1894200    0.00000       Uiso       1.00
       H20          H  0.3105730  0.8117489  0.4792231    0.00000       Uiso       1.00
       H21          H  0.0207751  0.8117466  0.1894200    0.00000       Uiso       1.00
       H22          H  0.3105730  0.1882515  0.4792231    0.00000       Uiso       1.00
       H23          H  0.9792244  0.8117466  0.8105788    0.00000       Uiso       1.00
       H24          H  0.6894265  0.1882515  0.5207756    0.00000       Uiso       1.00
       C57          C  0.9783110  0.5000002  0.8192043    0.00000       Uiso       1.00
       C58          C  0.6807998  0.5000002  0.5216878    0.00000       Uiso       1.00
       C59          C  0.0216884  0.5000002  0.1807944    0.00000       Uiso       1.00
       C60          C  0.3191996  0.5000002  0.4783109    0.00000       Uiso       1.00
       H25          H  0.5994278  0.5000002  0.6130489    0.00000       Uiso       1.00
       H26          H  0.4999347  0.5000002  0.5976690    0.00000       Uiso       1.00
       H27          H  0.8869457  0.5000002  0.9005743    0.00000       Uiso       1.00
       H28          H  0.9023258  0.5000002  0.0000654    0.00000       Uiso       1.00
       H29          H  0.4005717  0.5000002  0.3869498    0.00000       Uiso       1.00
       H30          H  0.5000647  0.5000002  0.4023297    0.00000       Uiso       1.00
       H31          H  0.1130538  0.5000002  0.0994244    0.00000       Uiso       1.00
       H32          H  0.0976736  0.5000002  0.9999334    0.00000       Uiso       1.00
        C5          S  0.4105504  0.5000002  0.5325853    0.00000       Uiso       1.00
        C5          S  0.9674125  0.5000002  0.0894468    0.00000       Uiso       1.00
        C5          S  0.5894491  0.5000002  0.4674134    0.00000       Uiso       1.00
        C5          S  0.0325870  0.5000002  0.9105519    0.00000       Uiso       1.00
        N1          N  0.9332687  0.5000002  0.5667339    0.00000       Uiso       1.00
        N1          N  0.0667307  0.5000002  0.4332648    0.00000       Uiso       1.00
       H13          H  0.9635720  0.5000002  0.5364220    0.00000       Uiso       1.00
       H13          H  0.0364275  0.5000002  0.4635767    0.00000       Uiso       1.00
