data_TTI-COF
_audit_creation_date              0000-00-00
_audit_creation_method            'LanYouShi'
_symmetry_space_group_name_H-M    'P1'
_cell_length_a                    25.8059006
_cell_length_b                    25.8059006
_cell_length_c                    3.5204999
_cell_angle_alpha                 90.0000000
_cell_angle_beta                  90.0000000
_cell_angle_gamma                 120.0000000
loop_
_atom_site_label
_atom_site_type_symbol
_atom_site_fract_x
_atom_site_fract_y
_atom_site_fract_z
_atom_site_U_iso_or_equiv
_atom_site_adp_type
_atom_site_occupancy
        C1          C  0.0214414  0.5583729  0.5000004    0.00000       Uiso       1.00
        N1          N  0.9802669  0.4993142  0.5000004    0.00000       Uiso       1.00
        C2          C  0.4416265  0.4630679  0.5000004    0.00000       Uiso       1.00
        N2          N  0.5006851  0.4809527  0.5000004    0.00000       Uiso       1.00
        C3          C  0.5369314  0.9785579  0.5000004    0.00000       Uiso       1.00
        N3          N  0.5190467  0.0197324  0.5000004    0.00000       Uiso       1.00
        H1          H  0.0074659  0.5890957  0.5000004    0.00000       Uiso       1.00
        H2          H  0.4109037  0.4183697  0.5000004    0.00000       Uiso       1.00
        H3          H  0.5816297  0.9925334  0.5000004    0.00000       Uiso       1.00
       C43          C  0.1247888  0.6412028  0.5000004    0.00000       Uiso       1.00
       C44          C  0.1868251  0.6628871  0.5000004    0.00000       Uiso       1.00
       C43          C  0.8900692  0.4075140  0.5000004    0.00000       Uiso       1.00
       C44          C  0.8271567  0.3733311  0.5000004    0.00000       Uiso       1.00
       C43          C  0.3587965  0.4835854  0.5000004    0.00000       Uiso       1.00
       C44          C  0.3371123  0.5239373  0.5000004    0.00000       Uiso       1.00
       C43          C  0.5924853  0.4825552  0.5000004    0.00000       Uiso       1.00
       C44          C  0.6266683  0.4538257  0.5000004    0.00000       Uiso       1.00
       C43          C  0.5164140  0.8752105  0.5000004    0.00000       Uiso       1.00
       C44          C  0.4760620  0.8131743  0.5000004    0.00000       Uiso       1.00
       C43          C  0.5174442  0.1099301  0.5000004    0.00000       Uiso       1.00
       C44          C  0.5461737  0.1728426  0.5000004    0.00000       Uiso       1.00
       H31          H  0.1101488  0.6714723  0.5000004    0.00000       Uiso       1.00
       H32          H  0.2149743  0.7082355  0.5000004    0.00000       Uiso       1.00
       H31          H  0.9144813  0.3861930  0.5000004    0.00000       Uiso       1.00
       H32          H  0.8076005  0.3276994  0.5000004    0.00000       Uiso       1.00
       H31          H  0.3285271  0.4386759  0.5000004    0.00000       Uiso       1.00
       H32          H  0.2917638  0.5067382  0.5000004    0.00000       Uiso       1.00
       H31          H  0.6138063  0.5282883  0.5000004    0.00000       Uiso       1.00
       H32          H  0.6723000  0.4799011  0.5000004    0.00000       Uiso       1.00
       H31          H  0.5613235  0.8898506  0.5000004    0.00000       Uiso       1.00
       H32          H  0.4932612  0.7850251  0.5000004    0.00000       Uiso       1.00
       H31          H  0.4717111  0.0855180  0.5000004    0.00000       Uiso       1.00
       H32          H  0.5200983  0.1923989  0.5000004    0.00000       Uiso       1.00
       C49          C  0.4331217  0.8936493  0.5000004    0.00000       Uiso       1.00
       C50          C  0.3928261  0.8316007  0.5000004    0.00000       Uiso       1.00
       C49          C  0.6138291  0.1151794  0.5000004    0.00000       Uiso       1.00
       C50          C  0.6425861  0.1781041  0.5000004    0.00000       Uiso       1.00
       C49          C  0.1063501  0.5394718  0.5000004    0.00000       Uiso       1.00
       C50          C  0.1683986  0.5612248  0.5000004    0.00000       Uiso       1.00
       C49          C  0.8848199  0.4986496  0.5000004    0.00000       Uiso       1.00
       C50          C  0.8218952  0.4644819  0.5000004    0.00000       Uiso       1.00
       C49          C  0.4605275  0.5668776  0.5000004    0.00000       Uiso       1.00
       C50          C  0.4387746  0.6071732  0.5000004    0.00000       Uiso       1.00
       C49          C  0.5013497  0.3861703  0.5000004    0.00000       Uiso       1.00
       C50          C  0.5355175  0.3574133  0.5000004    0.00000       Uiso       1.00
       H37          H  0.4162831  0.9221006  0.5000004    0.00000       Uiso       1.00
       H38          H  0.3479900  0.8172092  0.5000004    0.00000       Uiso       1.00
       H37          H  0.6394644  0.0953102  0.5000004    0.00000       Uiso       1.00
       H38          H  0.6883701  0.2016424  0.5000004    0.00000       Uiso       1.00
       H37          H  0.0778988  0.4941818  0.5000004    0.00000       Uiso       1.00
       H38          H  0.1827901  0.5307801  0.5000004    0.00000       Uiso       1.00
       H37          H  0.9046891  0.5441542  0.5000004    0.00000       Uiso       1.00
       H38          H  0.7983569  0.4867277  0.5000004    0.00000       Uiso       1.00
       H37          H  0.5058175  0.5837163  0.5000004    0.00000       Uiso       1.00
       H38          H  0.4692193  0.6520093  0.5000004    0.00000       Uiso       1.00
       H37          H  0.4558451  0.3605348  0.5000004    0.00000       Uiso       1.00
       H38          H  0.5132717  0.3116292  0.5000004    0.00000       Uiso       1.00
        C1          C  0.3727365  0.7273532  0.5000004    0.00000       Uiso       1.00
        C2          C  0.2726462  0.6453826  0.5000004    0.00000       Uiso       1.00
        C3          C  0.3546167  0.6272629  0.5000004    0.00000       Uiso       1.00
        C4          C  0.4956647  0.9165930  0.5000004    0.00000       Uiso       1.00
        C5          C  0.0834064  0.5790710  0.5000004    0.00000       Uiso       1.00
        C6          C  0.4209283  0.5043347  0.5000004    0.00000       Uiso       1.00
        C7          C  0.4133026  0.7898362  0.5000004    0.00000       Uiso       1.00
        C8          C  0.2101632  0.6234658  0.5000004    0.00000       Uiso       1.00
        C9          C  0.3765336  0.5866968  0.5000004    0.00000       Uiso       1.00
        N1          N  0.3921815  0.6873054  0.5000004    0.00000       Uiso       1.00
        N2          N  0.3126940  0.7048754  0.5000004    0.00000       Uiso       1.00
        N3          N  0.2951239  0.6078179  0.5000004    0.00000       Uiso       1.00
        C1          C  0.6385029  0.2718296  0.5000004    0.00000       Uiso       1.00
        C2          C  0.7281697  0.3666733  0.5000004    0.00000       Uiso       1.00
        C3          C  0.6333261  0.3614965  0.5000004    0.00000       Uiso       1.00
        C4          C  0.5507596  0.0803106  0.5000004    0.00000       Uiso       1.00
        C5          C  0.9196888  0.4704491  0.5000004    0.00000       Uiso       1.00
        C6          C  0.5295503  0.4492397  0.5000004    0.00000       Uiso       1.00
        C7          C  0.6094940  0.2084850  0.5000004    0.00000       Uiso       1.00
        C8          C  0.7915143  0.4010090  0.5000004    0.00000       Uiso       1.00
        C9          C  0.5989904  0.3905053  0.5000004    0.00000       Uiso       1.00
        N1          N  0.6070176  0.3009985  0.5000004    0.00000       Uiso       1.00
        N2          N  0.6990009  0.3060191  0.5000004    0.00000       Uiso       1.00
        N3          N  0.6939803  0.3929818  0.5000004    0.00000       Uiso       1.00
