data_ZnPc-PPE
_audit_creation_date              0000-00-00
_audit_creation_method            'LanYouShi'
_symmetry_space_group_name_H-M    'P1'
_cell_length_a                    38.5330009
_cell_length_b                    38.5330009
_cell_length_c                    3.3670001
_cell_angle_alpha                 90.0000000
_cell_angle_beta                  90.0000000
_cell_angle_gamma                 90.0000000
loop_
_atom_site_label
_atom_site_type_symbol
_atom_site_fract_x
_atom_site_fract_y
_atom_site_fract_z
_atom_site_U_iso_or_equiv
_atom_site_adp_type
_atom_site_occupancy
       Zn1         Zn  0.5000000  0.5000000  0.5000000    0.00000       Uiso       1.00
        N1          N  0.4483800  0.5000000  0.5000000    0.00000       Uiso       1.00
        B1          B  0.2709580  0.5000000  0.5000000    0.00000       Uiso       1.00
        C1          C  0.2274380  0.5000000  0.5000000    0.00000       Uiso       1.00
        C2          C  0.1505300  0.5000000  0.5000000    0.00000       Uiso       1.00
        C3          C  0.1108660  0.5000000  0.5000000    0.00000       Uiso       1.00
        C4          C  0.0781090  0.5000000  0.5000000    0.00000       Uiso       1.00
        C5          C  0.0384440  0.5000000  0.5000000    0.00000       Uiso       1.00
        N2          N  0.5516200  0.5000000  0.5000000    0.00000       Uiso       1.00
        B2          B  0.7290419  0.5000000  0.5000000    0.00000       Uiso       1.00
        C6          C  0.7725620  0.5000000  0.5000000    0.00000       Uiso       1.00
        C7          C  0.8494700  0.5000000  0.5000000    0.00000       Uiso       1.00
        C8          C  0.8891340  0.5000000  0.5000000    0.00000       Uiso       1.00
        C9          C  0.9218909  0.5000000  0.5000000    0.00000       Uiso       1.00
       C10          C  0.9615560  0.5000000  0.5000000    0.00000       Uiso       1.00
        N3          N  0.5000000  0.4483800  0.5000000    0.00000       Uiso       1.00
        B3          B  0.5000000  0.2709580  0.5000000    0.00000       Uiso       1.00
       C11          C  0.5000000  0.2274380  0.5000000    0.00000       Uiso       1.00
       C12          C  0.5000000  0.1505300  0.5000000    0.00000       Uiso       1.00
       C13          C  0.5000000  0.1108660  0.5000000    0.00000       Uiso       1.00
       C14          C  0.5000000  0.0781090  0.5000000    0.00000       Uiso       1.00
       C15          C  0.5000000  0.0384440  0.5000000    0.00000       Uiso       1.00
        N4          N  0.5000000  0.5516200  0.5000000    0.00000       Uiso       1.00
        B4          B  0.5000000  0.7290419  0.5000000    0.00000       Uiso       1.00
       C16          C  0.5000000  0.7725620  0.5000000    0.00000       Uiso       1.00
       C17          C  0.5000000  0.8494700  0.5000000    0.00000       Uiso       1.00
       C18          C  0.5000000  0.8891340  0.5000000    0.00000       Uiso       1.00
       C19          C  0.5000000  0.9218909  0.5000000    0.00000       Uiso       1.00
       C20          C  0.5000000  0.9615560  0.5000000    0.00000       Uiso       1.00
        N5          N  0.4378640  0.4378640  0.5000000    0.00000       Uiso       1.00
        N6          N  0.5621360  0.5621360  0.5000000    0.00000       Uiso       1.00
        N7          N  0.5621360  0.4378640  0.5000000    0.00000       Uiso       1.00
        N8          N  0.4378640  0.5621360  0.5000000    0.00000       Uiso       1.00
        O1          O  0.2932600  0.4681940  0.5000000    0.00000       Uiso       1.00
       C21          C  0.4266760  0.4716660  0.5000000    0.00000       Uiso       1.00
       C22          C  0.3912990  0.4820080  0.5000000    0.00000       Uiso       1.00
       C23          C  0.3594250  0.4628770  0.5000000    0.00000       Uiso       1.00
       C24          C  0.3274000  0.4819730  0.5000000    0.00000       Uiso       1.00
       C25          C  0.2076160  0.4688530  0.5000000    0.00000       Uiso       1.00
       C26          C  0.1702990  0.4688530  0.5000000    0.00000       Uiso       1.00
       C27          C  0.0186770  0.4688530  0.5000000    0.00000       Uiso       1.00
        H1          H  0.3599038  0.4346715  0.5000000    0.00000       Uiso       1.00
        H2          H  0.2206536  0.4438370  0.5000000    0.00000       Uiso       1.00
        H3          H  0.1561942  0.4444228  0.5000000    0.00000       Uiso       1.00
        H4          H  0.0334695  0.4432316  0.5000000    0.00000       Uiso       1.00
        O2          O  0.7067400  0.5318060  0.5000000    0.00000       Uiso       1.00
       C28          C  0.5733240  0.5283340  0.5000000    0.00000       Uiso       1.00
       C29          C  0.6087010  0.5179920  0.5000000    0.00000       Uiso       1.00
       C30          C  0.6405749  0.5371230  0.5000000    0.00000       Uiso       1.00
       C31          C  0.6726000  0.5180269  0.5000000    0.00000       Uiso       1.00
       C32          C  0.7923840  0.5311470  0.5000000    0.00000       Uiso       1.00
       C33          C  0.8297010  0.5311470  0.5000000    0.00000       Uiso       1.00
       C34          C  0.9813230  0.5311470  0.5000000    0.00000       Uiso       1.00
        H5          H  0.6400962  0.5653285  0.5000000    0.00000       Uiso       1.00
        H6          H  0.7793463  0.5561630  0.5000000    0.00000       Uiso       1.00
        H7          H  0.8438058  0.5555772  0.5000000    0.00000       Uiso       1.00
        H8          H  0.9665305  0.5567684  0.5000000    0.00000       Uiso       1.00
        O3          O  0.5318060  0.2932600  0.5000000    0.00000       Uiso       1.00
       C35          C  0.5283340  0.4266760  0.5000000    0.00000       Uiso       1.00
       C36          C  0.5179920  0.3912990  0.5000000    0.00000       Uiso       1.00
       C37          C  0.5371230  0.3594250  0.5000000    0.00000       Uiso       1.00
       C38          C  0.5180269  0.3274000  0.5000000    0.00000       Uiso       1.00
       C39          C  0.5311470  0.2076160  0.5000000    0.00000       Uiso       1.00
       C40          C  0.5311470  0.1702990  0.5000000    0.00000       Uiso       1.00
       C41          C  0.5311470  0.0186770  0.5000000    0.00000       Uiso       1.00
        H9          H  0.5653285  0.3599038  0.5000000    0.00000       Uiso       1.00
       H10          H  0.5561630  0.2206536  0.5000000    0.00000       Uiso       1.00
       H11          H  0.5555772  0.1561942  0.5000000    0.00000       Uiso       1.00
       H12          H  0.5567684  0.0334695  0.5000000    0.00000       Uiso       1.00
        O4          O  0.4681940  0.7067400  0.5000000    0.00000       Uiso       1.00
       C42          C  0.4716660  0.5733240  0.5000000    0.00000       Uiso       1.00
       C43          C  0.4820080  0.6087010  0.5000000    0.00000       Uiso       1.00
       C44          C  0.4628770  0.6405749  0.5000000    0.00000       Uiso       1.00
       C45          C  0.4819730  0.6726000  0.5000000    0.00000       Uiso       1.00
       C46          C  0.4688530  0.7923840  0.5000000    0.00000       Uiso       1.00
       C47          C  0.4688530  0.8297010  0.5000000    0.00000       Uiso       1.00
       C48          C  0.4688530  0.9813230  0.5000000    0.00000       Uiso       1.00
       H13          H  0.4346715  0.6400962  0.5000000    0.00000       Uiso       1.00
       H14          H  0.4438370  0.7793463  0.5000000    0.00000       Uiso       1.00
       H15          H  0.4444228  0.8438058  0.5000000    0.00000       Uiso       1.00
       H16          H  0.4432316  0.9665305  0.5000000    0.00000       Uiso       1.00
        O5          O  0.7067400  0.4681940  0.5000000    0.00000       Uiso       1.00
       C49          C  0.5733240  0.4716660  0.5000000    0.00000       Uiso       1.00
       C50          C  0.6087010  0.4820080  0.5000000    0.00000       Uiso       1.00
       C51          C  0.6405749  0.4628770  0.5000000    0.00000       Uiso       1.00
       C52          C  0.6726000  0.4819730  0.5000000    0.00000       Uiso       1.00
       C53          C  0.7923840  0.4688530  0.5000000    0.00000       Uiso       1.00
       C54          C  0.8297010  0.4688530  0.5000000    0.00000       Uiso       1.00
       C55          C  0.9813230  0.4688530  0.5000000    0.00000       Uiso       1.00
       H17          H  0.6400962  0.4346715  0.5000000    0.00000       Uiso       1.00
       H18          H  0.7793463  0.4438370  0.5000000    0.00000       Uiso       1.00
       H19          H  0.8438058  0.4444228  0.5000000    0.00000       Uiso       1.00
       H20          H  0.9665305  0.4432316  0.5000000    0.00000       Uiso       1.00
        O6          O  0.2932600  0.5318060  0.5000000    0.00000       Uiso       1.00
       C56          C  0.4266760  0.5283340  0.5000000    0.00000       Uiso       1.00
       C57          C  0.3912990  0.5179920  0.5000000    0.00000       Uiso       1.00
       C58          C  0.3594250  0.5371230  0.5000000    0.00000       Uiso       1.00
       C59          C  0.3274000  0.5180269  0.5000000    0.00000       Uiso       1.00
       C60          C  0.2076160  0.5311470  0.5000000    0.00000       Uiso       1.00
       C61          C  0.1702990  0.5311470  0.5000000    0.00000       Uiso       1.00
       C62          C  0.0186770  0.5311470  0.5000000    0.00000       Uiso       1.00
       H21          H  0.3599038  0.5653285  0.5000000    0.00000       Uiso       1.00
       H22          H  0.2206536  0.5561630  0.5000000    0.00000       Uiso       1.00
       H23          H  0.1561942  0.5555772  0.5000000    0.00000       Uiso       1.00
       H24          H  0.0334695  0.5567684  0.5000000    0.00000       Uiso       1.00
        O7          O  0.4681940  0.2932600  0.5000000    0.00000       Uiso       1.00
       C63          C  0.4716660  0.4266760  0.5000000    0.00000       Uiso       1.00
       C64          C  0.4820080  0.3912990  0.5000000    0.00000       Uiso       1.00
       C65          C  0.4628770  0.3594250  0.5000000    0.00000       Uiso       1.00
       C66          C  0.4819730  0.3274000  0.5000000    0.00000       Uiso       1.00
       C67          C  0.4688530  0.2076160  0.5000000    0.00000       Uiso       1.00
       C68          C  0.4688530  0.1702990  0.5000000    0.00000       Uiso       1.00
       C69          C  0.4688530  0.0186770  0.5000000    0.00000       Uiso       1.00
       H25          H  0.4346715  0.3599038  0.5000000    0.00000       Uiso       1.00
       H26          H  0.4438370  0.2206536  0.5000000    0.00000       Uiso       1.00
       H27          H  0.4444228  0.1561942  0.5000000    0.00000       Uiso       1.00
       H28          H  0.4432316  0.0334695  0.5000000    0.00000       Uiso       1.00
        O8          O  0.5318060  0.7067400  0.5000000    0.00000       Uiso       1.00
       C70          C  0.5283340  0.5733240  0.5000000    0.00000       Uiso       1.00
       C71          C  0.5179920  0.6087010  0.5000000    0.00000       Uiso       1.00
       C72          C  0.5371230  0.6405749  0.5000000    0.00000       Uiso       1.00
       C73          C  0.5180269  0.6726000  0.5000000    0.00000       Uiso       1.00
       C74          C  0.5311470  0.7923840  0.5000000    0.00000       Uiso       1.00
       C75          C  0.5311470  0.8297010  0.5000000    0.00000       Uiso       1.00
       C76          C  0.5311470  0.9813230  0.5000000    0.00000       Uiso       1.00
       H29          H  0.5653285  0.6400962  0.5000000    0.00000       Uiso       1.00
       H30          H  0.5561630  0.7793463  0.5000000    0.00000       Uiso       1.00
       H31          H  0.5555772  0.8438058  0.5000000    0.00000       Uiso       1.00
       H32          H  0.5567684  0.9665305  0.5000000    0.00000       Uiso       1.00
