data_BW-COF-AB
_audit_creation_date              0000-00-00
_audit_creation_method            'LanYouShi'
_symmetry_space_group_name_H-M    'P1'
_cell_length_a                    6.9099998
_cell_length_b                    45.2700005
_cell_length_c                    42.6599998
_cell_angle_alpha                 90.0000000
_cell_angle_beta                  90.0000000
_cell_angle_gamma                 90.0000000
loop_
_atom_site_label
_atom_site_type_symbol
_atom_site_fract_x
_atom_site_fract_y
_atom_site_fract_z
_atom_site_U_iso_or_equiv
_atom_site_adp_type
_atom_site_occupancy
        N1          N  0.7500000  0.2784400  0.2680500    0.00000       Uiso       1.00
        N2          N  0.7500000  0.2837700  0.2149400    0.00000       Uiso       1.00
        N3          N  0.7500000  0.2233400  0.6987900    0.00000       Uiso       1.00
        N4          N  0.7500000  0.2180200  0.7519100    0.00000       Uiso       1.00
        N5          N  0.7500000  0.0624000  0.7360200    0.00000       Uiso       1.00
        N6          N  0.7500000  0.4373800  0.2799100    0.00000       Uiso       1.00
        N7          N  0.7500000  0.2595600  0.5488300    0.00000       Uiso       1.00
        N8          N  0.7500000  0.2329600  0.0470200    0.00000       Uiso       1.00
        N9          N  0.7500000  0.2687600  0.9197700    0.00000       Uiso       1.00
       N10          N  0.7500000  0.2424700  0.4178600    0.00000       Uiso       1.00
        C1          C  0.7500000  0.2500500  0.2538900    0.00000       Uiso       1.00
        C2          C  0.7500000  0.2223200  0.2684800    0.00000       Uiso       1.00
        C3          C  0.7500000  0.1974100  0.2485200    0.00000       Uiso       1.00
        C4          C  0.7500000  0.2532600  0.2223200    0.00000       Uiso       1.00
        C5          C  0.7500000  0.2292100  0.2017000    0.00000       Uiso       1.00
        C6          C  0.7500000  0.2008200  0.2154900    0.00000       Uiso       1.00
        C7          C  0.7500000  0.2970900  0.2433000    0.00000       Uiso       1.00
        C8          C  0.7500000  0.2517300  0.7129500    0.00000       Uiso       1.00
        C9          C  0.7500000  0.2794500  0.6983400    0.00000       Uiso       1.00
       C10          C  0.7500000  0.2485300  0.7445200    0.00000       Uiso       1.00
       C11          C  0.7500000  0.3009800  0.7513400    0.00000       Uiso       1.00
       C12          C  0.7500000  0.0309200  0.7350400    0.00000       Uiso       1.00
       C13          C  0.7500000  0.2047000  0.7235500    0.00000       Uiso       1.00
       C14          C  0.7500000  0.2726000  0.7651300    0.00000       Uiso       1.00
       C15          C  0.7500000  0.3043700  0.7183100    0.00000       Uiso       1.00
       C16          C  0.7500000  0.2196900  0.3031800    0.00000       Uiso       1.00
       C17          C  0.7500000  0.2820800  0.6636100    0.00000       Uiso       1.00
       C18          C  0.7500000  0.2847000  0.5634000    0.00000       Uiso       1.00
       C19          C  0.7500000  0.2680700  0.7996500    0.00000       Uiso       1.00
       C20          C  0.7500000  0.2337400  0.1671700    0.00000       Uiso       1.00
       C21          C  0.7500000  0.1725700  0.7201300    0.00000       Uiso       1.00
       C22          C  0.7500000  0.3292200  0.2467100    0.00000       Uiso       1.00
       C23          C  0.7500000  0.3423500  0.2764700    0.00000       Uiso       1.00
       C24          C  0.7500000  0.3731000  0.2792800    0.00000       Uiso       1.00
       C25          C  0.7500000  0.3907100  0.2522700    0.00000       Uiso       1.00
       C26          C  0.7500000  0.3775900  0.2226800    0.00000       Uiso       1.00
       C27          C  0.7500000  0.3469700  0.2198900    0.00000       Uiso       1.00
       C28          C  0.7500000  0.4228300  0.2537700    0.00000       Uiso       1.00
       C29          C  0.7500000  0.2557700  0.5157100    0.00000       Uiso       1.00
       C30          C  0.7500000  0.2270000  0.5037900    0.00000       Uiso       1.00
       C31          C  0.7500000  0.2221900  0.4715200    0.00000       Uiso       1.00
       C32          C  0.7500000  0.2463100  0.4509700    0.00000       Uiso       1.00
       C33          C  0.7500000  0.2750900  0.4628900    0.00000       Uiso       1.00
       C34          C  0.7500000  0.2799000  0.4951700    0.00000       Uiso       1.00
       C35          C  0.7500000  0.2421600  0.0149500    0.00000       Uiso       1.00
       C36          C  0.7500000  0.2208100  0.9914000    0.00000       Uiso       1.00
       C37          C  0.7500000  0.2294100  0.9600200    0.00000       Uiso       1.00
       C38          C  0.7500000  0.2595500  0.9518300    0.00000       Uiso       1.00
       C39          C  0.7500000  0.2808900  0.9753800    0.00000       Uiso       1.00
       C40          C  0.7500000  0.2722900  0.0067600    0.00000       Uiso       1.00
       C41          C  0.7500000  0.2446100  0.1023500    0.00000       Uiso       1.00
       C42          C  0.7500000  0.1548000  0.7469300    0.00000       Uiso       1.00
       C43          C  0.7500000  0.1241900  0.7440800    0.00000       Uiso       1.00
       C44          C  0.7500000  0.1110500  0.7143600    0.00000       Uiso       1.00
       C45          C  0.7500000  0.1287300  0.6875100    0.00000       Uiso       1.00
       C46          C  0.7500000  0.1594700  0.6903700    0.00000       Uiso       1.00
       C47          C  0.7500000  0.0789300  0.7112600    0.00000       Uiso       1.00
       C48          C  0.7500000  0.2100100  0.1459100    0.00000       Uiso       1.00
       C49          C  0.7500000  0.2154200  0.1134900    0.00000       Uiso       1.00
       C50          C  0.7500000  0.2680100  0.1233000    0.00000       Uiso       1.00
       C51          C  0.7500000  0.2625700  0.1551900    0.00000       Uiso       1.00
       C52          C  0.7500000  0.2918000  0.8209000    0.00000       Uiso       1.00
       C53          C  0.7500000  0.2863700  0.8533199    0.00000       Uiso       1.00
       C54          C  0.7500000  0.2571600  0.8644400    0.00000       Uiso       1.00
       C55          C  0.7500000  0.2337800  0.8434900    0.00000       Uiso       1.00
       C56          C  0.7500000  0.2392400  0.8116100    0.00000       Uiso       1.00
       C57          C  0.7500000  0.2494300  0.8975200    0.00000       Uiso       1.00
       C58          C  0.7500000  0.2523100  0.0692600    0.00000       Uiso       1.00
       C59          C  0.7500000  0.1922500  0.3186400    0.00000       Uiso       1.00
       C60          C  0.7500000  0.1910700  0.3515900    0.00000       Uiso       1.00
       C61          C  0.7500000  0.2173200  0.3690600    0.00000       Uiso       1.00
       C62          C  0.7500000  0.2444100  0.3535800    0.00000       Uiso       1.00
       C63          C  0.7500000  0.2454500  0.3212900    0.00000       Uiso       1.00
       C64          C  0.7500000  0.2172900  0.4033600    0.00000       Uiso       1.00
       C65          C  0.7500000  0.3095300  0.6481700    0.00000       Uiso       1.00
       C66          C  0.7500000  0.3107600  0.6152300    0.00000       Uiso       1.00
       C67          C  0.7500000  0.2845500  0.5977000    0.00000       Uiso       1.00
       C68          C  0.7500000  0.2574300  0.6131400    0.00000       Uiso       1.00
       C69          C  0.7500000  0.2563400  0.6454600    0.00000       Uiso       1.00
       C70          C  0.7500000  0.4689900  0.2798400    0.00000       Uiso       1.00
       C71          C  0.7500000  0.4845200  0.3082300    0.00000       Uiso       1.00
       C72          C  0.7500000  0.4846800  0.2514900    0.00000       Uiso       1.00
       C73          C  0.7500000  0.0154100  0.7065400    0.00000       Uiso       1.00
       C74          C  0.7500000  0.0153900  0.7633200    0.00000       Uiso       1.00
        H1          H  0.7500000  0.2805000  0.2939800    0.00000       Uiso       1.00
        H2          H  0.7500000  0.2107900  0.7767700    0.00000       Uiso       1.00
        H3          H  0.7500000  0.1742200  0.2589300    0.00000       Uiso       1.00
        H4          H  0.7500000  0.1805100  0.1996800    0.00000       Uiso       1.00
        H5          H  0.7500000  0.3215100  0.7668200    0.00000       Uiso       1.00
        H6          H  0.7500000  0.3275600  0.7078900    0.00000       Uiso       1.00
        H7          H  0.7500000  0.3062000  0.5494900    0.00000       Uiso       1.00
        H8          H  0.7500000  0.3279400  0.2983900    0.00000       Uiso       1.00
        H9          H  0.7500000  0.3837800  0.3034800    0.00000       Uiso       1.00
       H10          H  0.7500000  0.3919600  0.2007400    0.00000       Uiso       1.00
       H11          H  0.7500000  0.3363600  0.1956500    0.00000       Uiso       1.00
       H12          H  0.7500000  0.4352000  0.2304900    0.00000       Uiso       1.00
       H13          H  0.7500000  0.2073400  0.5204800    0.00000       Uiso       1.00
       H14          H  0.7500000  0.1986900  0.4619300    0.00000       Uiso       1.00
       H15          H  0.7500000  0.2947500  0.4461900    0.00000       Uiso       1.00
       H16          H  0.7500000  0.3033600  0.5048600    0.00000       Uiso       1.00
       H17          H  0.7500000  0.1963700  0.9978100    0.00000       Uiso       1.00
       H18          H  0.7500000  0.2119900  0.9407300    0.00000       Uiso       1.00
       H19          H  0.7500000  0.3053400  0.9689701    0.00000       Uiso       1.00
       H20          H  0.7500000  0.2899000  0.0258600    0.00000       Uiso       1.00
       H21          H  0.7500000  0.1653800  0.7711800    0.00000       Uiso       1.00
       H22          H  0.7500000  0.1097400  0.7659700    0.00000       Uiso       1.00
       H23          H  0.7500000  0.1180700  0.6633000    0.00000       Uiso       1.00
       H24          H  0.7500000  0.1739000  0.6684700    0.00000       Uiso       1.00
       H25          H  0.7500000  0.0684100  0.6869800    0.00000       Uiso       1.00
       H26          H  0.7500000  0.1863200  0.1549800    0.00000       Uiso       1.00
       H27          H  0.7500000  0.1961900  0.0962300    0.00000       Uiso       1.00
       H28          H  0.7500000  0.2917000  0.1142200    0.00000       Uiso       1.00
       H29          H  0.7500000  0.2822500  0.1718800    0.00000       Uiso       1.00
       H30          H  0.7500000  0.3154900  0.8118300    0.00000       Uiso       1.00
       H31          H  0.7500000  0.3056400  0.8705300    0.00000       Uiso       1.00
       H32          H  0.7500000  0.2100900  0.8525500    0.00000       Uiso       1.00
       H33          H  0.7500000  0.2195700  0.7949200    0.00000       Uiso       1.00
       H34          H  0.7500000  0.2248700  0.9033800    0.00000       Uiso       1.00
       H35          H  0.7500000  0.2768700  0.0633800    0.00000       Uiso       1.00
       H36          H  0.7500000  0.1709000  0.3044700    0.00000       Uiso       1.00
       H37          H  0.7500000  0.1688000  0.3640600    0.00000       Uiso       1.00
       H38          H  0.7500000  0.2658300  0.3676300    0.00000       Uiso       1.00
       H39          H  0.7500000  0.2679800  0.3093700    0.00000       Uiso       1.00
       H40          H  0.7500000  0.1958200  0.4173400    0.00000       Uiso       1.00
       H41          H  0.7500000  0.3308700  0.6623700    0.00000       Uiso       1.00
       H42          H  0.7500000  0.3330500  0.6027900    0.00000       Uiso       1.00
       H43          H  0.7500000  0.2360300  0.5990500    0.00000       Uiso       1.00
       H44          H  0.7500000  0.2337800  0.6573300    0.00000       Uiso       1.00
       H45          H  0.7500000  0.4719900  0.3314000    0.00000       Uiso       1.00
       H46          H  0.7500000  0.4722600  0.2282400    0.00000       Uiso       1.00
       H47          H  0.7500000  0.0279900  0.6834000    0.00000       Uiso       1.00
       H48          H  0.7500000  0.0279000  0.7865200    0.00000       Uiso       1.00
       N11          N  0.7500000  0.7215599  0.2680500    0.00000       Uiso       1.00
       N12          N  0.7500000  0.7162300  0.2149400    0.00000       Uiso       1.00
       N13          N  0.7500000  0.7766600  0.6987900    0.00000       Uiso       1.00
       N14          N  0.7500000  0.7819800  0.7519100    0.00000       Uiso       1.00
       N15          N  0.7500000  0.9376000  0.7360200    0.00000       Uiso       1.00
       N16          N  0.7500000  0.5626200  0.2799100    0.00000       Uiso       1.00
       N17          N  0.7500000  0.7404400  0.5488300    0.00000       Uiso       1.00
       N18          N  0.7500000  0.7670400  0.0470200    0.00000       Uiso       1.00
       N19          N  0.7500000  0.7312400  0.9197700    0.00000       Uiso       1.00
       N20          N  0.7500000  0.7575300  0.4178600    0.00000       Uiso       1.00
       C75          C  0.7500000  0.7499500  0.2538900    0.00000       Uiso       1.00
       C76          C  0.7500000  0.7776800  0.2684800    0.00000       Uiso       1.00
       C77          C  0.7500000  0.8025900  0.2485200    0.00000       Uiso       1.00
       C78          C  0.7500000  0.7467400  0.2223200    0.00000       Uiso       1.00
       C79          C  0.7500000  0.7707900  0.2017000    0.00000       Uiso       1.00
       C80          C  0.7500000  0.7991800  0.2154900    0.00000       Uiso       1.00
       C81          C  0.7500000  0.7029100  0.2433000    0.00000       Uiso       1.00
       C82          C  0.7500000  0.7482700  0.7129500    0.00000       Uiso       1.00
       C83          C  0.7500000  0.7205499  0.6983400    0.00000       Uiso       1.00
       C84          C  0.7500000  0.7514700  0.7445200    0.00000       Uiso       1.00
       C85          C  0.7500000  0.6990200  0.7513400    0.00000       Uiso       1.00
       C86          C  0.7500000  0.9690800  0.7350400    0.00000       Uiso       1.00
       C87          C  0.7500000  0.7953000  0.7235500    0.00000       Uiso       1.00
       C88          C  0.7500000  0.7274000  0.7651300    0.00000       Uiso       1.00
       C89          C  0.7500000  0.6956300  0.7183100    0.00000       Uiso       1.00
       C90          C  0.7500000  0.7803100  0.3031800    0.00000       Uiso       1.00
       C91          C  0.7500000  0.7179199  0.6636100    0.00000       Uiso       1.00
       C92          C  0.7500000  0.7153000  0.5634000    0.00000       Uiso       1.00
       C93          C  0.7500000  0.7319300  0.7996500    0.00000       Uiso       1.00
       C94          C  0.7500000  0.7662600  0.1671700    0.00000       Uiso       1.00
       C95          C  0.7500000  0.8274300  0.7201300    0.00000       Uiso       1.00
       C96          C  0.7500000  0.6707800  0.2467100    0.00000       Uiso       1.00
       C97          C  0.7500000  0.6576500  0.2764700    0.00000       Uiso       1.00
       C98          C  0.7500000  0.6269000  0.2792800    0.00000       Uiso       1.00
       C99          C  0.7500000  0.6092900  0.2522700    0.00000       Uiso       1.00
      C100          C  0.7500000  0.6224100  0.2226800    0.00000       Uiso       1.00
      C101          C  0.7500000  0.6530300  0.2198900    0.00000       Uiso       1.00
      C102          C  0.7500000  0.5771700  0.2537700    0.00000       Uiso       1.00
      C103          C  0.7500000  0.7442300  0.5157100    0.00000       Uiso       1.00
      C104          C  0.7500000  0.7730000  0.5037900    0.00000       Uiso       1.00
      C105          C  0.7500000  0.7778100  0.4715200    0.00000       Uiso       1.00
      C106          C  0.7500000  0.7536899  0.4509700    0.00000       Uiso       1.00
      C107          C  0.7500000  0.7249100  0.4628900    0.00000       Uiso       1.00
      C108          C  0.7500000  0.7201000  0.4951700    0.00000       Uiso       1.00
      C109          C  0.7500000  0.7578400  0.0149500    0.00000       Uiso       1.00
      C110          C  0.7500000  0.7791899  0.9914000    0.00000       Uiso       1.00
      C111          C  0.7500000  0.7705900  0.9600200    0.00000       Uiso       1.00
      C112          C  0.7500000  0.7404500  0.9518300    0.00000       Uiso       1.00
      C113          C  0.7500000  0.7191100  0.9753800    0.00000       Uiso       1.00
      C114          C  0.7500000  0.7277100  0.0067600    0.00000       Uiso       1.00
      C115          C  0.7500000  0.7553900  0.1023500    0.00000       Uiso       1.00
      C116          C  0.7500000  0.8452000  0.7469300    0.00000       Uiso       1.00
      C117          C  0.7500000  0.8758100  0.7440800    0.00000       Uiso       1.00
      C118          C  0.7500000  0.8889500  0.7143600    0.00000       Uiso       1.00
      C119          C  0.7500000  0.8712700  0.6875100    0.00000       Uiso       1.00
      C120          C  0.7500000  0.8405300  0.6903700    0.00000       Uiso       1.00
      C121          C  0.7500000  0.9210700  0.7112600    0.00000       Uiso       1.00
      C122          C  0.7500000  0.7899900  0.1459100    0.00000       Uiso       1.00
      C123          C  0.7500000  0.7845800  0.1134900    0.00000       Uiso       1.00
      C124          C  0.7500000  0.7319900  0.1233000    0.00000       Uiso       1.00
      C125          C  0.7500000  0.7374300  0.1551900    0.00000       Uiso       1.00
      C126          C  0.7500000  0.7082000  0.8209000    0.00000       Uiso       1.00
      C127          C  0.7500000  0.7136300  0.8533199    0.00000       Uiso       1.00
      C128          C  0.7500000  0.7428401  0.8644400    0.00000       Uiso       1.00
      C129          C  0.7500000  0.7662200  0.8434900    0.00000       Uiso       1.00
      C130          C  0.7500000  0.7607600  0.8116100    0.00000       Uiso       1.00
      C131          C  0.7500000  0.7505699  0.8975200    0.00000       Uiso       1.00
      C132          C  0.7500000  0.7476900  0.0692600    0.00000       Uiso       1.00
      C133          C  0.7500000  0.8077500  0.3186400    0.00000       Uiso       1.00
      C134          C  0.7500000  0.8089300  0.3515900    0.00000       Uiso       1.00
      C135          C  0.7500000  0.7826800  0.3690600    0.00000       Uiso       1.00
      C136          C  0.7500000  0.7555900  0.3535800    0.00000       Uiso       1.00
      C137          C  0.7500000  0.7545500  0.3212900    0.00000       Uiso       1.00
      C138          C  0.7500000  0.7827100  0.4033600    0.00000       Uiso       1.00
      C139          C  0.7500000  0.6904700  0.6481700    0.00000       Uiso       1.00
      C140          C  0.7500000  0.6892400  0.6152300    0.00000       Uiso       1.00
      C141          C  0.7500000  0.7154500  0.5977000    0.00000       Uiso       1.00
      C142          C  0.7500000  0.7425700  0.6131400    0.00000       Uiso       1.00
      C143          C  0.7500000  0.7436600  0.6454600    0.00000       Uiso       1.00
      C144          C  0.7500000  0.5310100  0.2798400    0.00000       Uiso       1.00
      C145          C  0.7500000  0.5154800  0.3082300    0.00000       Uiso       1.00
      C146          C  0.7500000  0.5153200  0.2514900    0.00000       Uiso       1.00
      C147          C  0.7500000  0.9845899  0.7065400    0.00000       Uiso       1.00
      C148          C  0.7500000  0.9846100  0.7633200    0.00000       Uiso       1.00
       H49          H  0.7500000  0.7195000  0.2939800    0.00000       Uiso       1.00
       H50          H  0.7500000  0.7892100  0.7767700    0.00000       Uiso       1.00
       H51          H  0.7500000  0.8257800  0.2589300    0.00000       Uiso       1.00
       H52          H  0.7500000  0.8194900  0.1996800    0.00000       Uiso       1.00
       H53          H  0.7500000  0.6784900  0.7668200    0.00000       Uiso       1.00
       H54          H  0.7500000  0.6724400  0.7078900    0.00000       Uiso       1.00
       H55          H  0.7500000  0.6938000  0.5494900    0.00000       Uiso       1.00
       H56          H  0.7500000  0.6720600  0.2983900    0.00000       Uiso       1.00
       H57          H  0.7500000  0.6162200  0.3034800    0.00000       Uiso       1.00
       H58          H  0.7500000  0.6080400  0.2007400    0.00000       Uiso       1.00
       H59          H  0.7500000  0.6636400  0.1956500    0.00000       Uiso       1.00
       H60          H  0.7500000  0.5648000  0.2304900    0.00000       Uiso       1.00
       H61          H  0.7500000  0.7926599  0.5204800    0.00000       Uiso       1.00
       H62          H  0.7500000  0.8013100  0.4619300    0.00000       Uiso       1.00
       H63          H  0.7500000  0.7052500  0.4461900    0.00000       Uiso       1.00
       H64          H  0.7500000  0.6966400  0.5048600    0.00000       Uiso       1.00
       H65          H  0.7500000  0.8036300  0.9978100    0.00000       Uiso       1.00
       H66          H  0.7500000  0.7880100  0.9407300    0.00000       Uiso       1.00
       H67          H  0.7500000  0.6946600  0.9689701    0.00000       Uiso       1.00
       H68          H  0.7500000  0.7101001  0.0258600    0.00000       Uiso       1.00
       H69          H  0.7500000  0.8346200  0.7711800    0.00000       Uiso       1.00
       H70          H  0.7500000  0.8902600  0.7659700    0.00000       Uiso       1.00
       H71          H  0.7500000  0.8819300  0.6633000    0.00000       Uiso       1.00
       H72          H  0.7500000  0.8261001  0.6684700    0.00000       Uiso       1.00
       H73          H  0.7500000  0.9315900  0.6869800    0.00000       Uiso       1.00
       H74          H  0.7500000  0.8136800  0.1549800    0.00000       Uiso       1.00
       H75          H  0.7500000  0.8038099  0.0962300    0.00000       Uiso       1.00
       H76          H  0.7500000  0.7082999  0.1142200    0.00000       Uiso       1.00
       H77          H  0.7500000  0.7177500  0.1718800    0.00000       Uiso       1.00
       H78          H  0.7500000  0.6845100  0.8118300    0.00000       Uiso       1.00
       H79          H  0.7500000  0.6943600  0.8705300    0.00000       Uiso       1.00
       H80          H  0.7500000  0.7899100  0.8525500    0.00000       Uiso       1.00
       H81          H  0.7500000  0.7804300  0.7949200    0.00000       Uiso       1.00
       H82          H  0.7500000  0.7751300  0.9033800    0.00000       Uiso       1.00
       H83          H  0.7500000  0.7231300  0.0633800    0.00000       Uiso       1.00
       H84          H  0.7500000  0.8291000  0.3044700    0.00000       Uiso       1.00
       H85          H  0.7500000  0.8312000  0.3640600    0.00000       Uiso       1.00
       H86          H  0.7500000  0.7341700  0.3676300    0.00000       Uiso       1.00
       H87          H  0.7500000  0.7320200  0.3093700    0.00000       Uiso       1.00
       H88          H  0.7500000  0.8041800  0.4173400    0.00000       Uiso       1.00
       H89          H  0.7500000  0.6691300  0.6623700    0.00000       Uiso       1.00
       H90          H  0.7500000  0.6669500  0.6027900    0.00000       Uiso       1.00
       H91          H  0.7500000  0.7639700  0.5990500    0.00000       Uiso       1.00
       H92          H  0.7500000  0.7662200  0.6573300    0.00000       Uiso       1.00
       H93          H  0.7500000  0.5280100  0.3314000    0.00000       Uiso       1.00
       H94          H  0.7500000  0.5277400  0.2282400    0.00000       Uiso       1.00
       H95          H  0.7500000  0.9720100  0.6834000    0.00000       Uiso       1.00
       H96          H  0.7500000  0.9721000  0.7865200    0.00000       Uiso       1.00
       N21          N  0.2500000  0.2784400  0.7319500    0.00000       Uiso       1.00
       N22          N  0.2500000  0.2837700  0.7850600    0.00000       Uiso       1.00
       N23          N  0.2500000  0.2233400  0.3012100    0.00000       Uiso       1.00
       N24          N  0.2500000  0.2180200  0.2480900    0.00000       Uiso       1.00
       N25          N  0.2500000  0.0624000  0.2639800    0.00000       Uiso       1.00
       N26          N  0.2500000  0.4373800  0.7200900    0.00000       Uiso       1.00
       N27          N  0.2500000  0.2595600  0.4511700    0.00000       Uiso       1.00
       N28          N  0.2500000  0.2329600  0.9529800    0.00000       Uiso       1.00
       N29          N  0.2500000  0.2687600  0.0802300    0.00000       Uiso       1.00
       N30          N  0.2500000  0.2424700  0.5821400    0.00000       Uiso       1.00
      C149          C  0.2500000  0.2500500  0.7461100    0.00000       Uiso       1.00
      C150          C  0.2500000  0.2223200  0.7315200    0.00000       Uiso       1.00
      C151          C  0.2500000  0.1974100  0.7514800    0.00000       Uiso       1.00
      C152          C  0.2500000  0.2532600  0.7776800    0.00000       Uiso       1.00
      C153          C  0.2500000  0.2292100  0.7983000    0.00000       Uiso       1.00
      C154          C  0.2500000  0.2008200  0.7845100    0.00000       Uiso       1.00
      C155          C  0.2500000  0.2970900  0.7567000    0.00000       Uiso       1.00
      C156          C  0.2500000  0.2517300  0.2870500    0.00000       Uiso       1.00
      C157          C  0.2500000  0.2794500  0.3016600    0.00000       Uiso       1.00
      C158          C  0.2500000  0.2485300  0.2554800    0.00000       Uiso       1.00
      C159          C  0.2500000  0.3009800  0.2486600    0.00000       Uiso       1.00
      C160          C  0.2500000  0.0309200  0.2649600    0.00000       Uiso       1.00
      C161          C  0.2500000  0.2047000  0.2764500    0.00000       Uiso       1.00
      C162          C  0.2500000  0.2726000  0.2348700    0.00000       Uiso       1.00
      C163          C  0.2500000  0.3043700  0.2816900    0.00000       Uiso       1.00
      C164          C  0.2500000  0.2196900  0.6968200    0.00000       Uiso       1.00
      C165          C  0.2500000  0.2820800  0.3363900    0.00000       Uiso       1.00
      C166          C  0.2500000  0.2847000  0.4366000    0.00000       Uiso       1.00
      C167          C  0.2500000  0.2680700  0.2003500    0.00000       Uiso       1.00
      C168          C  0.2500000  0.2337400  0.8328300    0.00000       Uiso       1.00
      C169          C  0.2500000  0.1725700  0.2798700    0.00000       Uiso       1.00
      C170          C  0.2500000  0.3292200  0.7532901    0.00000       Uiso       1.00
      C171          C  0.2500000  0.3423500  0.7235300    0.00000       Uiso       1.00
      C172          C  0.2500000  0.3731000  0.7207200    0.00000       Uiso       1.00
      C173          C  0.2500000  0.3907100  0.7477300    0.00000       Uiso       1.00
      C174          C  0.2500000  0.3775900  0.7773200    0.00000       Uiso       1.00
      C175          C  0.2500000  0.3469700  0.7801100    0.00000       Uiso       1.00
      C176          C  0.2500000  0.4228300  0.7462300    0.00000       Uiso       1.00
      C177          C  0.2500000  0.2557700  0.4842900    0.00000       Uiso       1.00
      C178          C  0.2500000  0.2270000  0.4962100    0.00000       Uiso       1.00
      C179          C  0.2500000  0.2221900  0.5284800    0.00000       Uiso       1.00
      C180          C  0.2500000  0.2463100  0.5490300    0.00000       Uiso       1.00
      C181          C  0.2500000  0.2750900  0.5371100    0.00000       Uiso       1.00
      C182          C  0.2500000  0.2799000  0.5048300    0.00000       Uiso       1.00
      C183          C  0.2500000  0.2421600  0.9850500    0.00000       Uiso       1.00
      C184          C  0.2500000  0.2208100  0.0086000    0.00000       Uiso       1.00
      C185          C  0.2500000  0.2294100  0.0399800    0.00000       Uiso       1.00
      C186          C  0.2500000  0.2595500  0.0481700    0.00000       Uiso       1.00
      C187          C  0.2500000  0.2808900  0.0246200    0.00000       Uiso       1.00
      C188          C  0.2500000  0.2722900  0.9932401    0.00000       Uiso       1.00
      C189          C  0.2500000  0.2446100  0.8976501    0.00000       Uiso       1.00
      C190          C  0.2500000  0.1548000  0.2530700    0.00000       Uiso       1.00
      C191          C  0.2500000  0.1241900  0.2559200    0.00000       Uiso       1.00
      C192          C  0.2500000  0.1110500  0.2856400    0.00000       Uiso       1.00
      C193          C  0.2500000  0.1287300  0.3124900    0.00000       Uiso       1.00
      C194          C  0.2500000  0.1594700  0.3096300    0.00000       Uiso       1.00
      C195          C  0.2500000  0.0789300  0.2887400    0.00000       Uiso       1.00
      C196          C  0.2500000  0.2100100  0.8540900    0.00000       Uiso       1.00
      C197          C  0.2500000  0.2154200  0.8865100    0.00000       Uiso       1.00
      C198          C  0.2500000  0.2680100  0.8767000    0.00000       Uiso       1.00
      C199          C  0.2500000  0.2625700  0.8448099    0.00000       Uiso       1.00
      C200          C  0.2500000  0.2918000  0.1791000    0.00000       Uiso       1.00
      C201          C  0.2500000  0.2863700  0.1466800    0.00000       Uiso       1.00
      C202          C  0.2500000  0.2571600  0.1355600    0.00000       Uiso       1.00
      C203          C  0.2500000  0.2337800  0.1565100    0.00000       Uiso       1.00
      C204          C  0.2500000  0.2392400  0.1883900    0.00000       Uiso       1.00
      C205          C  0.2500000  0.2494300  0.1024800    0.00000       Uiso       1.00
      C206          C  0.2500000  0.2523100  0.9307400    0.00000       Uiso       1.00
      C207          C  0.2500000  0.1922500  0.6813600    0.00000       Uiso       1.00
      C208          C  0.2500000  0.1910700  0.6484100    0.00000       Uiso       1.00
      C209          C  0.2500000  0.2173200  0.6309400    0.00000       Uiso       1.00
      C210          C  0.2500000  0.2444100  0.6464200    0.00000       Uiso       1.00
      C211          C  0.2500000  0.2454500  0.6787100    0.00000       Uiso       1.00
      C212          C  0.2500000  0.2172900  0.5966400    0.00000       Uiso       1.00
      C213          C  0.2500000  0.3095300  0.3518300    0.00000       Uiso       1.00
      C214          C  0.2500000  0.3107600  0.3847700    0.00000       Uiso       1.00
      C215          C  0.2500000  0.2845500  0.4023000    0.00000       Uiso       1.00
      C216          C  0.2500000  0.2574300  0.3868600    0.00000       Uiso       1.00
      C217          C  0.2500000  0.2563400  0.3545400    0.00000       Uiso       1.00
      C218          C  0.2500000  0.4689900  0.7201600    0.00000       Uiso       1.00
      C219          C  0.2500000  0.4845200  0.6917700    0.00000       Uiso       1.00
      C220          C  0.2500000  0.4846800  0.7485100    0.00000       Uiso       1.00
      C221          C  0.2500000  0.0154100  0.2934600    0.00000       Uiso       1.00
      C222          C  0.2500000  0.0153900  0.2366800    0.00000       Uiso       1.00
       H97          H  0.2500000  0.2805000  0.7060200    0.00000       Uiso       1.00
       H98          H  0.2500000  0.2107900  0.2232300    0.00000       Uiso       1.00
       H99          H  0.2500000  0.1742200  0.7410700    0.00000       Uiso       1.00
      H100          H  0.2500000  0.1805100  0.8003200    0.00000       Uiso       1.00
      H101          H  0.2500000  0.3215100  0.2331800    0.00000       Uiso       1.00
      H102          H  0.2500000  0.3275600  0.2921100    0.00000       Uiso       1.00
      H103          H  0.2500000  0.3062000  0.4505100    0.00000       Uiso       1.00
      H104          H  0.2500000  0.3279400  0.7016100    0.00000       Uiso       1.00
      H105          H  0.2500000  0.3837800  0.6965200    0.00000       Uiso       1.00
      H106          H  0.2500000  0.3919600  0.7992600    0.00000       Uiso       1.00
      H107          H  0.2500000  0.3363600  0.8043500    0.00000       Uiso       1.00
      H108          H  0.2500000  0.4352000  0.7695100    0.00000       Uiso       1.00
      H109          H  0.2500000  0.2073400  0.4795200    0.00000       Uiso       1.00
      H110          H  0.2500000  0.1986900  0.5380700    0.00000       Uiso       1.00
      H111          H  0.2500000  0.2947500  0.5538100    0.00000       Uiso       1.00
      H112          H  0.2500000  0.3033600  0.4951400    0.00000       Uiso       1.00
      H113          H  0.2500000  0.1963700  0.0021900    0.00000       Uiso       1.00
      H114          H  0.2500000  0.2119900  0.0592700    0.00000       Uiso       1.00
      H115          H  0.2500000  0.3053400  0.0310300    0.00000       Uiso       1.00
      H116          H  0.2500000  0.2899000  0.9741400    0.00000       Uiso       1.00
      H117          H  0.2500000  0.1653800  0.2288200    0.00000       Uiso       1.00
      H118          H  0.2500000  0.1097400  0.2340300    0.00000       Uiso       1.00
      H119          H  0.2500000  0.1180700  0.3367000    0.00000       Uiso       1.00
      H120          H  0.2500000  0.1739000  0.3315300    0.00000       Uiso       1.00
      H121          H  0.2500000  0.0684100  0.3130200    0.00000       Uiso       1.00
      H122          H  0.2500000  0.1863200  0.8450200    0.00000       Uiso       1.00
      H123          H  0.2500000  0.1961900  0.9037700    0.00000       Uiso       1.00
      H124          H  0.2500000  0.2917000  0.8857800    0.00000       Uiso       1.00
      H125          H  0.2500000  0.2822500  0.8281200    0.00000       Uiso       1.00
      H126          H  0.2500000  0.3154900  0.1881700    0.00000       Uiso       1.00
      H127          H  0.2500000  0.3056400  0.1294700    0.00000       Uiso       1.00
      H128          H  0.2500000  0.2100900  0.1474500    0.00000       Uiso       1.00
      H129          H  0.2500000  0.2195700  0.2050800    0.00000       Uiso       1.00
      H130          H  0.2500000  0.2248700  0.0966200    0.00000       Uiso       1.00
      H131          H  0.2500000  0.2768700  0.9366201    0.00000       Uiso       1.00
      H132          H  0.2500000  0.1709000  0.6955300    0.00000       Uiso       1.00
      H133          H  0.2500000  0.1688000  0.6359400    0.00000       Uiso       1.00
      H134          H  0.2500000  0.2658300  0.6323700    0.00000       Uiso       1.00
      H135          H  0.2500000  0.2679800  0.6906300    0.00000       Uiso       1.00
      H136          H  0.2500000  0.1958200  0.5826600    0.00000       Uiso       1.00
      H137          H  0.2500000  0.3308700  0.3376300    0.00000       Uiso       1.00
      H138          H  0.2500000  0.3330500  0.3972100    0.00000       Uiso       1.00
      H139          H  0.2500000  0.2360300  0.4009500    0.00000       Uiso       1.00
      H140          H  0.2500000  0.2337800  0.3426700    0.00000       Uiso       1.00
      H141          H  0.2500000  0.4719900  0.6686000    0.00000       Uiso       1.00
      H142          H  0.2500000  0.4722600  0.7717600    0.00000       Uiso       1.00
      H143          H  0.2500000  0.0279900  0.3166000    0.00000       Uiso       1.00
      H144          H  0.2500000  0.0279000  0.2134800    0.00000       Uiso       1.00
       N31          N  0.2500000  0.7215599  0.7319500    0.00000       Uiso       1.00
       N32          N  0.2500000  0.7162300  0.7850600    0.00000       Uiso       1.00
       N33          N  0.2500000  0.7766600  0.3012100    0.00000       Uiso       1.00
       N34          N  0.2500000  0.7819800  0.2480900    0.00000       Uiso       1.00
       N35          N  0.2500000  0.9376000  0.2639800    0.00000       Uiso       1.00
       N36          N  0.2500000  0.5626200  0.7200900    0.00000       Uiso       1.00
       N37          N  0.2500000  0.7404400  0.4511700    0.00000       Uiso       1.00
       N38          N  0.2500000  0.7670400  0.9529800    0.00000       Uiso       1.00
       N39          N  0.2500000  0.7312400  0.0802300    0.00000       Uiso       1.00
       N40          N  0.2500000  0.7575300  0.5821400    0.00000       Uiso       1.00
      C223          C  0.2500000  0.7499500  0.7461100    0.00000       Uiso       1.00
      C224          C  0.2500000  0.7776800  0.7315200    0.00000       Uiso       1.00
      C225          C  0.2500000  0.8025900  0.7514800    0.00000       Uiso       1.00
      C226          C  0.2500000  0.7467400  0.7776800    0.00000       Uiso       1.00
      C227          C  0.2500000  0.7707900  0.7983000    0.00000       Uiso       1.00
      C228          C  0.2500000  0.7991800  0.7845100    0.00000       Uiso       1.00
      C229          C  0.2500000  0.7029100  0.7567000    0.00000       Uiso       1.00
      C230          C  0.2500000  0.7482700  0.2870500    0.00000       Uiso       1.00
      C231          C  0.2500000  0.7205499  0.3016600    0.00000       Uiso       1.00
      C232          C  0.2500000  0.7514700  0.2554800    0.00000       Uiso       1.00
      C233          C  0.2500000  0.6990200  0.2486600    0.00000       Uiso       1.00
      C234          C  0.2500000  0.9690800  0.2649600    0.00000       Uiso       1.00
      C235          C  0.2500000  0.7953000  0.2764500    0.00000       Uiso       1.00
      C236          C  0.2500000  0.7274000  0.2348700    0.00000       Uiso       1.00
      C237          C  0.2500000  0.6956300  0.2816900    0.00000       Uiso       1.00
      C238          C  0.2500000  0.7803100  0.6968200    0.00000       Uiso       1.00
      C239          C  0.2500000  0.7179199  0.3363900    0.00000       Uiso       1.00
      C240          C  0.2500000  0.7153000  0.4366000    0.00000       Uiso       1.00
      C241          C  0.2500000  0.7319300  0.2003500    0.00000       Uiso       1.00
      C242          C  0.2500000  0.7662600  0.8328300    0.00000       Uiso       1.00
      C243          C  0.2500000  0.8274300  0.2798700    0.00000       Uiso       1.00
      C244          C  0.2500000  0.6707800  0.7532901    0.00000       Uiso       1.00
      C245          C  0.2500000  0.6576500  0.7235300    0.00000       Uiso       1.00
      C246          C  0.2500000  0.6269000  0.7207200    0.00000       Uiso       1.00
      C247          C  0.2500000  0.6092900  0.7477300    0.00000       Uiso       1.00
      C248          C  0.2500000  0.6224100  0.7773200    0.00000       Uiso       1.00
      C249          C  0.2500000  0.6530300  0.7801100    0.00000       Uiso       1.00
      C250          C  0.2500000  0.5771700  0.7462300    0.00000       Uiso       1.00
      C251          C  0.2500000  0.7442300  0.4842900    0.00000       Uiso       1.00
      C252          C  0.2500000  0.7730000  0.4962100    0.00000       Uiso       1.00
      C253          C  0.2500000  0.7778100  0.5284800    0.00000       Uiso       1.00
      C254          C  0.2500000  0.7536899  0.5490300    0.00000       Uiso       1.00
      C255          C  0.2500000  0.7249100  0.5371100    0.00000       Uiso       1.00
      C256          C  0.2500000  0.7201000  0.5048300    0.00000       Uiso       1.00
      C257          C  0.2500000  0.7578400  0.9850500    0.00000       Uiso       1.00
      C258          C  0.2500000  0.7791899  0.0086000    0.00000       Uiso       1.00
      C259          C  0.2500000  0.7705900  0.0399800    0.00000       Uiso       1.00
      C260          C  0.2500000  0.7404500  0.0481700    0.00000       Uiso       1.00
      C261          C  0.2500000  0.7191100  0.0246200    0.00000       Uiso       1.00
      C262          C  0.2500000  0.7277100  0.9932401    0.00000       Uiso       1.00
      C263          C  0.2500000  0.7553900  0.8976501    0.00000       Uiso       1.00
      C264          C  0.2500000  0.8452000  0.2530700    0.00000       Uiso       1.00
      C265          C  0.2500000  0.8758100  0.2559200    0.00000       Uiso       1.00
      C266          C  0.2500000  0.8889500  0.2856400    0.00000       Uiso       1.00
      C267          C  0.2500000  0.8712700  0.3124900    0.00000       Uiso       1.00
      C268          C  0.2500000  0.8405300  0.3096300    0.00000       Uiso       1.00
      C269          C  0.2500000  0.9210700  0.2887400    0.00000       Uiso       1.00
      C270          C  0.2500000  0.7899900  0.8540900    0.00000       Uiso       1.00
      C271          C  0.2500000  0.7845800  0.8865100    0.00000       Uiso       1.00
      C272          C  0.2500000  0.7319900  0.8767000    0.00000       Uiso       1.00
      C273          C  0.2500000  0.7374300  0.8448099    0.00000       Uiso       1.00
      C274          C  0.2500000  0.7082000  0.1791000    0.00000       Uiso       1.00
      C275          C  0.2500000  0.7136300  0.1466800    0.00000       Uiso       1.00
      C276          C  0.2500000  0.7428401  0.1355600    0.00000       Uiso       1.00
      C277          C  0.2500000  0.7662200  0.1565100    0.00000       Uiso       1.00
      C278          C  0.2500000  0.7607600  0.1883900    0.00000       Uiso       1.00
      C279          C  0.2500000  0.7505699  0.1024800    0.00000       Uiso       1.00
      C280          C  0.2500000  0.7476900  0.9307400    0.00000       Uiso       1.00
      C281          C  0.2500000  0.8077500  0.6813600    0.00000       Uiso       1.00
      C282          C  0.2500000  0.8089300  0.6484100    0.00000       Uiso       1.00
      C283          C  0.2500000  0.7826800  0.6309400    0.00000       Uiso       1.00
      C284          C  0.2500000  0.7555900  0.6464200    0.00000       Uiso       1.00
      C285          C  0.2500000  0.7545500  0.6787100    0.00000       Uiso       1.00
      C286          C  0.2500000  0.7827100  0.5966400    0.00000       Uiso       1.00
      C287          C  0.2500000  0.6904700  0.3518300    0.00000       Uiso       1.00
      C288          C  0.2500000  0.6892400  0.3847700    0.00000       Uiso       1.00
      C289          C  0.2500000  0.7154500  0.4023000    0.00000       Uiso       1.00
      C290          C  0.2500000  0.7425700  0.3868600    0.00000       Uiso       1.00
      C291          C  0.2500000  0.7436600  0.3545400    0.00000       Uiso       1.00
      C292          C  0.2500000  0.5310100  0.7201600    0.00000       Uiso       1.00
      C293          C  0.2500000  0.5154800  0.6917700    0.00000       Uiso       1.00
      C294          C  0.2500000  0.5153200  0.7485100    0.00000       Uiso       1.00
      C295          C  0.2500000  0.9845899  0.2934600    0.00000       Uiso       1.00
      C296          C  0.2500000  0.9846100  0.2366800    0.00000       Uiso       1.00
      H145          H  0.2500000  0.7195000  0.7060200    0.00000       Uiso       1.00
      H146          H  0.2500000  0.7892100  0.2232300    0.00000       Uiso       1.00
      H147          H  0.2500000  0.8257800  0.7410700    0.00000       Uiso       1.00
      H148          H  0.2500000  0.8194900  0.8003200    0.00000       Uiso       1.00
      H149          H  0.2500000  0.6784900  0.2331800    0.00000       Uiso       1.00
      H150          H  0.2500000  0.6724400  0.2921100    0.00000       Uiso       1.00
      H151          H  0.2500000  0.6938000  0.4505100    0.00000       Uiso       1.00
      H152          H  0.2500000  0.6720600  0.7016100    0.00000       Uiso       1.00
      H153          H  0.2500000  0.6162200  0.6965200    0.00000       Uiso       1.00
      H154          H  0.2500000  0.6080400  0.7992600    0.00000       Uiso       1.00
      H155          H  0.2500000  0.6636400  0.8043500    0.00000       Uiso       1.00
      H156          H  0.2500000  0.5648000  0.7695100    0.00000       Uiso       1.00
      H157          H  0.2500000  0.7926599  0.4795200    0.00000       Uiso       1.00
      H158          H  0.2500000  0.8013100  0.5380700    0.00000       Uiso       1.00
      H159          H  0.2500000  0.7052500  0.5538100    0.00000       Uiso       1.00
      H160          H  0.2500000  0.6966400  0.4951400    0.00000       Uiso       1.00
      H161          H  0.2500000  0.8036300  0.0021900    0.00000       Uiso       1.00
      H162          H  0.2500000  0.7880100  0.0592700    0.00000       Uiso       1.00
      H163          H  0.2500000  0.6946600  0.0310300    0.00000       Uiso       1.00
      H164          H  0.2500000  0.7101001  0.9741400    0.00000       Uiso       1.00
      H165          H  0.2500000  0.8346200  0.2288200    0.00000       Uiso       1.00
      H166          H  0.2500000  0.8902600  0.2340300    0.00000       Uiso       1.00
      H167          H  0.2500000  0.8819300  0.3367000    0.00000       Uiso       1.00
      H168          H  0.2500000  0.8261001  0.3315300    0.00000       Uiso       1.00
      H169          H  0.2500000  0.9315900  0.3130200    0.00000       Uiso       1.00
      H170          H  0.2500000  0.8136800  0.8450200    0.00000       Uiso       1.00
      H171          H  0.2500000  0.8038099  0.9037700    0.00000       Uiso       1.00
      H172          H  0.2500000  0.7082999  0.8857800    0.00000       Uiso       1.00
      H173          H  0.2500000  0.7177500  0.8281200    0.00000       Uiso       1.00
      H174          H  0.2500000  0.6845100  0.1881700    0.00000       Uiso       1.00
      H175          H  0.2500000  0.6943600  0.1294700    0.00000       Uiso       1.00
      H176          H  0.2500000  0.7899100  0.1474500    0.00000       Uiso       1.00
      H177          H  0.2500000  0.7804300  0.2050800    0.00000       Uiso       1.00
      H178          H  0.2500000  0.7751300  0.0966200    0.00000       Uiso       1.00
      H179          H  0.2500000  0.7231300  0.9366201    0.00000       Uiso       1.00
      H180          H  0.2500000  0.8291000  0.6955300    0.00000       Uiso       1.00
      H181          H  0.2500000  0.8312000  0.6359400    0.00000       Uiso       1.00
      H182          H  0.2500000  0.7341700  0.6323700    0.00000       Uiso       1.00
      H183          H  0.2500000  0.7320200  0.6906300    0.00000       Uiso       1.00
      H184          H  0.2500000  0.8041800  0.5826600    0.00000       Uiso       1.00
      H185          H  0.2500000  0.6691300  0.3376300    0.00000       Uiso       1.00
      H186          H  0.2500000  0.6669500  0.3972100    0.00000       Uiso       1.00
      H187          H  0.2500000  0.7639700  0.4009500    0.00000       Uiso       1.00
      H188          H  0.2500000  0.7662200  0.3426700    0.00000       Uiso       1.00
      H189          H  0.2500000  0.5280100  0.6686000    0.00000       Uiso       1.00
      H190          H  0.2500000  0.5277400  0.7717600    0.00000       Uiso       1.00
      H191          H  0.2500000  0.9720100  0.3166000    0.00000       Uiso       1.00
      H192          H  0.2500000  0.9721000  0.2134800    0.00000       Uiso       1.00
