data_3D-CuPor-COF
_audit_creation_date              0000-00-00
_audit_creation_method            'LanYouShi'
_symmetry_space_group_name_H-M    'P1'
_cell_length_a                    43.7788010
_cell_length_b                    23.4757004
_cell_length_c                    21.3782005
_cell_angle_alpha                 90.0000000
_cell_angle_beta                  90.0000000
_cell_angle_gamma                 90.0000000
loop_
_atom_site_label
_atom_site_type_symbol
_atom_site_fract_x
_atom_site_fract_y
_atom_site_fract_z
_atom_site_U_iso_or_equiv
_atom_site_adp_type
_atom_site_occupancy
        C1          C  0.4205800  0.5747800  0.6952800    0.00000       Uiso       1.00
        C2          C  0.3975800  0.5727200  0.7401700    0.00000       Uiso       1.00
        C3          C  0.2927000  0.5996800  0.8593800    0.00000       Uiso       1.00
        C4          C  0.2699700  0.6008400  0.9048800    0.00000       Uiso       1.00
        C5          C  0.0828500  0.6598400  0.4740600    0.00000       Uiso       1.00
        C6          C  0.1050000  0.6174100  0.4778600    0.00000       Uiso       1.00
        C7          C  0.1806700  0.4602900  0.4361500    0.00000       Uiso       1.00
        C8          C  0.2017500  0.4158900  0.4343400    0.00000       Uiso       1.00
        H1          H  0.6013900  0.6943700  0.6174800    0.00000       Uiso       1.00
        H2          H  0.6420600  0.6905400  0.6963000    0.00000       Uiso       1.00
        H3          H  0.6933900  0.7413000  0.8478199    0.00000       Uiso       1.00
        H4          H  0.7322400  0.7440700  0.9297200    0.00000       Uiso       1.00
        H5          H  0.9060699  0.7226300  0.6159000    0.00000       Uiso       1.00
        H6          H  0.8670100  0.6483200  0.6226400    0.00000       Uiso       1.00
        H7          H  0.8214999  0.4810400  0.5935100    0.00000       Uiso       1.00
        H8          H  0.7850400  0.4041000  0.5908400    0.00000       Uiso       1.00
        C9          C  0.3984500  0.3396700  0.1516400    0.00000       Uiso       1.00
       C10          C  0.3753800  0.3418600  0.1964200    0.00000       Uiso       1.00
       C11          C  0.2960500  0.2978800  0.3630500    0.00000       Uiso       1.00
       C12          C  0.2735800  0.2965400  0.4090900    0.00000       Uiso       1.00
       C13          C  0.0836700  0.9692000  0.9721000    0.00000       Uiso       1.00
       C14          C  0.1058300  0.9267800  0.9758800    0.00000       Uiso       1.00
       C15          C  0.1850600  0.7752600  0.9337199    0.00000       Uiso       1.00
       C16          C  0.2059500  0.7305099  0.9323100    0.00000       Uiso       1.00
        H9          H  0.5620400  0.4577200  0.1951000    0.00000       Uiso       1.00
       H10          H  0.6024100  0.4611900  0.2744600    0.00000       Uiso       1.00
       H11          H  0.7001700  0.4408800  0.3406000    0.00000       Uiso       1.00
       H12          H  0.7387000  0.4393700  0.4217900    0.00000       Uiso       1.00
       H13          H  0.9075500  0.0279700  0.1166500    0.00000       Uiso       1.00
       H14          H  0.8685900  0.9534300  0.1235500    0.00000       Uiso       1.00
       H15          H  0.8263299  0.7821500  0.0908000    0.00000       Uiso       1.00
       H16          H  0.7901500  0.7042300  0.0887800    0.00000       Uiso       1.00
       C17          C  0.3533000  0.3842900  0.6828100    0.00000       Uiso       1.00
       C18          C  0.1467500  0.4318500  0.0367700    0.00000       Uiso       1.00
       C19          C  0.4361100  0.6129200  0.5389600    0.00000       Uiso       1.00
       C20          C  0.4450900  0.6197600  0.6019199    0.00000       Uiso       1.00
       C21          C  0.4210800  0.6184400  0.6505500    0.00000       Uiso       1.00
       C22          C  0.3746800  0.6140700  0.7408400    0.00000       Uiso       1.00
        N1          N  0.3305600  0.6508300  0.7944000    0.00000       Uiso       1.00
       C23          C  0.3062300  0.6504000  0.8389100    0.00000       Uiso       1.00
       C24          C  0.2595000  0.6529100  0.9299700    0.00000       Uiso       1.00
       C25          C  0.5944100  0.5977100  0.5186100    0.00000       Uiso       1.00
       H17          H  0.6136700  0.5894000  0.4274000    0.00000       Uiso       1.00
       C26          C  0.9754300  0.2749200  0.0247600    0.00000       Uiso       1.00
       C27          C  0.9851100  0.3335300  0.0357600    0.00000       Uiso       1.00
       C28          C  0.9213000  0.3020000  0.0237700    0.00000       Uiso       1.00
       C29          C  0.8766700  0.3872700  0.0314000    0.00000       Uiso       1.00
        N2          N  0.8488700  0.4684900  0.9920399    0.00000       Uiso       1.00
       C30          C  0.8271599  0.5140499  0.9928100    0.00000       Uiso       1.00
       C31          C  0.7837900  0.6030700  0.9894200    0.00000       Uiso       1.00
       C32          C  0.0550600  0.2573100  0.0203500    0.00000       Uiso       1.00
       H18          H  0.9709199  0.3704900  0.0431800    0.00000       Uiso       1.00
       H19          H  0.3547400  0.4188800  0.6494400    0.00000       Uiso       1.00
       H20          H  0.1605700  0.4325100  0.0785400    0.00000       Uiso       1.00
       C33          C  0.3981300  0.6634300  0.3248800    0.00000       Uiso       1.00
       C34          C  0.3758300  0.6615700  0.2784000    0.00000       Uiso       1.00
       C35          C  0.2948400  0.7038200  0.1145300    0.00000       Uiso       1.00
       C36          C  0.2720700  0.7047400  0.0690200    0.00000       Uiso       1.00
       C37          C  0.0961200  0.0001400  0.5772100    0.00000       Uiso       1.00
       C38          C  0.1182400  0.0425200  0.5810400    0.00000       Uiso       1.00
       C39          C  0.1831900  0.2304100  0.5463700    0.00000       Uiso       1.00
       C40          C  0.2039900  0.2752100  0.5451100    0.00000       Uiso       1.00
       H21          H  0.5596600  0.5494900  0.2788100    0.00000       Uiso       1.00
       H22          H  0.5984500  0.5470400  0.1963600    0.00000       Uiso       1.00
       H23          H  0.6929200  0.5610500  0.1203800    0.00000       Uiso       1.00
       H24          H  0.7317200  0.5623000  0.0398700    0.00000       Uiso       1.00
       H25          H  0.9296900  0.0265600  0.4298700    0.00000       Uiso       1.00
       H26          H  0.8906699  0.1013700  0.4364300    0.00000       Uiso       1.00
       H27          H  0.8228099  0.2060600  0.3904000    0.00000       Uiso       1.00
       H28          H  0.7868100  0.2854300  0.3872400    0.00000       Uiso       1.00
       C41          C  0.4224400  0.4190000  0.7789299    0.00000       Uiso       1.00
       C42          C  0.4003400  0.4205000  0.7322299    0.00000       Uiso       1.00
       C43          C  0.2977000  0.3984700  0.6062800    0.00000       Uiso       1.00
       C44          C  0.2748700  0.3977600  0.5611100    0.00000       Uiso       1.00
       C45          C  0.0969600  0.3065600  0.0771800    0.00000       Uiso       1.00
       C46          C  0.1191400  0.3488300  0.0809300    0.00000       Uiso       1.00
       C47          C  0.1854300  0.5352400  0.0485000    0.00000       Uiso       1.00
       C48          C  0.2065200  0.5795600  0.0468400    0.00000       Uiso       1.00
       H29          H  0.6028300  0.3038100  0.8604800    0.00000       Uiso       1.00
       H30          H  0.6421900  0.3071900  0.7787600    0.00000       Uiso       1.00
       H31          H  0.6969900  0.2567000  0.6343700    0.00000       Uiso       1.00
       H32          H  0.7362500  0.2543500  0.5534500    0.00000       Uiso       1.00
       H33          H  0.9311300  0.3370800  0.9325800    0.00000       Uiso       1.00
       H34          H  0.8921300  0.4118600  0.9391800    0.00000       Uiso       1.00
       H35          H  0.8297600  0.5250100  0.8932899    0.00000       Uiso       1.00
       H36          H  0.7931800  0.6037200  0.8897300    0.00000       Uiso       1.00
       C49          C  0.3503000  0.3898100  0.2878700    0.00000       Uiso       1.00
       C50          C  0.1465100  0.8756100  0.0360100    0.00000       Uiso       1.00
       C51          C  0.4360500  0.6151200  0.4374200    0.00000       Uiso       1.00
       C52          C  0.4451200  0.6244000  0.3749600    0.00000       Uiso       1.00
       C53          C  0.4214900  0.6229600  0.3255700    0.00000       Uiso       1.00
       C54          C  0.3767500  0.6194100  0.2318000    0.00000       Uiso       1.00
        N3          N  0.3320200  0.6537300  0.1783100    0.00000       Uiso       1.00
       C55          C  0.3081100  0.6525400  0.1328100    0.00000       Uiso       1.00
       C56          C  0.2609300  0.6536900  0.0427100    0.00000       Uiso       1.00
       C57          C  0.5944400  0.5989800  0.4569900    0.00000       Uiso       1.00
       H37          H  0.6136100  0.5869400  0.5477800    0.00000       Uiso       1.00
       C58          C  0.9754300  0.0327200  0.0234000    0.00000       Uiso       1.00
       C59          C  0.9851000  0.9739700  0.0334000    0.00000       Uiso       1.00
       C60          C  0.9213000  0.0058700  0.0228100    0.00000       Uiso       1.00
       C61          C  0.8767300  0.9205300  0.0304900    0.00000       Uiso       1.00
        N4          N  0.8475300  0.8417599  0.9894500    0.00000       Uiso       1.00
       C62          C  0.8259600  0.7960000  0.9905400    0.00000       Uiso       1.00
       C63          C  0.7830700  0.7061100  0.9883000    0.00000       Uiso       1.00
       C64          C  0.0550300  0.0505000  0.0194300    0.00000       Uiso       1.00
       H38          H  0.9708900  0.9369100  0.0400400    0.00000       Uiso       1.00
       H39          H  0.3499000  0.4264700  0.3186100    0.00000       Uiso       1.00
       H40          H  0.1589200  0.8723300  0.0795200    0.00000       Uiso       1.00
       C65          C  0.7617099  0.6540599  0.9875000    0.00000       Uiso       1.00
        N5          N  0.9536200  0.1539300  0.0194400    0.00000       Uiso       1.00
        N6          N  0.4536900  0.6229300  0.4883900    0.00000       Uiso       1.00
       C66          C  0.4754600  0.6269700  0.6212500    0.00000       Uiso       1.00
       C67          C  0.4844700  0.6404200  0.6814100    0.00000       Uiso       1.00
       C68          C  0.4754800  0.6334300  0.3566400    0.00000       Uiso       1.00
       C69          C  0.4844900  0.6492600  0.2971700    0.00000       Uiso       1.00
       H41          H  0.4701400  0.6592800  0.2576000    0.00000       Uiso       1.00
       H42          H  0.4700900  0.6491700  0.7212800    0.00000       Uiso       1.00
       C70          C  0.0645400  0.7999400  0.5147700    0.00000       Uiso       1.00
       C71          C  0.0942300  0.8169100  0.5062400    0.00000       Uiso       1.00
       C72          C  0.0645100  0.8921999  0.5144000    0.00000       Uiso       1.00
       C73          C  0.0942100  0.8752300  0.5060600    0.00000       Uiso       1.00
       H43          H  0.1139500  0.7899500  0.5010100    0.00000       Uiso       1.00
       H44          H  0.1139100  0.9022200  0.5006900    0.00000       Uiso       1.00
       C74          C  0.5794200  0.4252200  0.1952800    0.00000       Uiso       1.00
       C75          C  0.6024200  0.4272800  0.2401700    0.00000       Uiso       1.00
       C76          C  0.7072999  0.4003200  0.3593800    0.00000       Uiso       1.00
       C77          C  0.7300300  0.3991600  0.4048800    0.00000       Uiso       1.00
       C78          C  0.9171500  0.3401600  0.9740600    0.00000       Uiso       1.00
       C79          C  0.8950000  0.3825900  0.9778600    0.00000       Uiso       1.00
       C80          C  0.8193300  0.5397100  0.9361500    0.00000       Uiso       1.00
       C81          C  0.7982500  0.5841100  0.9343400    0.00000       Uiso       1.00
       H45          H  0.3986100  0.3056300  0.1174800    0.00000       Uiso       1.00
       H46          H  0.3579400  0.3094600  0.1963000    0.00000       Uiso       1.00
       H47          H  0.3066100  0.2587000  0.3478200    0.00000       Uiso       1.00
       H48          H  0.2677600  0.2559300  0.4297200    0.00000       Uiso       1.00
       H49          H  0.0939300  0.2773700  0.1159000    0.00000       Uiso       1.00
       H50          H  0.1329900  0.3516800  0.1226400    0.00000       Uiso       1.00
       H51          H  0.1785000  0.5189600  0.0935100    0.00000       Uiso       1.00
       H52          H  0.2149600  0.5959000  0.0908400    0.00000       Uiso       1.00
       C82          C  0.6015500  0.6603300  0.6516400    0.00000       Uiso       1.00
       C83          C  0.6246200  0.6581400  0.6964200    0.00000       Uiso       1.00
       C84          C  0.7039500  0.7021199  0.8630499    0.00000       Uiso       1.00
       C85          C  0.7264200  0.7034600  0.9090900    0.00000       Uiso       1.00
       C86          C  0.9163300  0.0308000  0.4721000    0.00000       Uiso       1.00
       C87          C  0.8941700  0.0732200  0.4758800    0.00000       Uiso       1.00
       C88          C  0.8149399  0.2247400  0.4337200    0.00000       Uiso       1.00
       C89          C  0.7940500  0.2694900  0.4323100    0.00000       Uiso       1.00
       H53          H  0.4379600  0.5422800  0.6951000    0.00000       Uiso       1.00
       H54          H  0.3975900  0.5388100  0.7744600    0.00000       Uiso       1.00
       H55          H  0.2998300  0.5591200  0.8406000    0.00000       Uiso       1.00
       H56          H  0.2613000  0.5606300  0.9217900    0.00000       Uiso       1.00
       H57          H  0.0924500  0.9720300  0.6166500    0.00000       Uiso       1.00
       H58          H  0.1314100  0.0465700  0.6235500    0.00000       Uiso       1.00
       H59          H  0.1736700  0.2178500  0.5908000    0.00000       Uiso       1.00
       H60          H  0.2098500  0.2957700  0.5887800    0.00000       Uiso       1.00
       C90          C  0.6467000  0.6157100  0.1828100    0.00000       Uiso       1.00
       C91          C  0.8532500  0.5681500  0.5367700    0.00000       Uiso       1.00
       C92          C  0.5638900  0.3870800  0.0389600    0.00000       Uiso       1.00
       C93          C  0.5549099  0.3802400  0.1019200    0.00000       Uiso       1.00
       C94          C  0.5789200  0.3815600  0.1505500    0.00000       Uiso       1.00
       C95          C  0.6253200  0.3859300  0.2408400    0.00000       Uiso       1.00
        N7          N  0.6694400  0.3491700  0.2944000    0.00000       Uiso       1.00
       C96          C  0.6937700  0.3496000  0.3389100    0.00000       Uiso       1.00
       C97          C  0.7405000  0.3470900  0.4299700    0.00000       Uiso       1.00
       C98          C  0.4055900  0.4022900  0.0186100    0.00000       Uiso       1.00
       H61          H  0.3863300  0.4106000  0.9274000    0.00000       Uiso       1.00
       C99          C  0.0245700  0.7250800  0.5247599    0.00000       Uiso       1.00
      C100          C  0.0148900  0.6664700  0.5357600    0.00000       Uiso       1.00
      C101          C  0.0787000  0.6980000  0.5237700    0.00000       Uiso       1.00
      C102          C  0.1233300  0.6127300  0.5314000    0.00000       Uiso       1.00
        N8          N  0.1511300  0.5315100  0.4920400    0.00000       Uiso       1.00
      C103          C  0.1728400  0.4859500  0.4928100    0.00000       Uiso       1.00
      C104          C  0.2162100  0.3969300  0.4894200    0.00000       Uiso       1.00
      C105          C  0.9449400  0.7426900  0.5203500    0.00000       Uiso       1.00
       H62          H  0.0290800  0.6295100  0.5431800    0.00000       Uiso       1.00
       H63          H  0.6452600  0.5811200  0.1494400    0.00000       Uiso       1.00
       H64          H  0.8394300  0.5674900  0.5785400    0.00000       Uiso       1.00
      C106          C  0.6018700  0.3365700  0.8248799    0.00000       Uiso       1.00
      C107          C  0.6241699  0.3384300  0.7784000    0.00000       Uiso       1.00
      C108          C  0.7051600  0.2961800  0.6145300    0.00000       Uiso       1.00
      C109          C  0.7279300  0.2952600  0.5690200    0.00000       Uiso       1.00
      C110          C  0.9038800  0.9998600  0.0772100    0.00000       Uiso       1.00
      C111          C  0.8817599  0.9574800  0.0810400    0.00000       Uiso       1.00
      C112          C  0.8168100  0.7695900  0.0463700    0.00000       Uiso       1.00
      C113          C  0.7960100  0.7247900  0.0451100    0.00000       Uiso       1.00
       H65          H  0.4403400  0.4505100  0.7788100    0.00000       Uiso       1.00
       H66          H  0.4015500  0.4529600  0.6963600    0.00000       Uiso       1.00
       H67          H  0.3070800  0.4389500  0.6203800    0.00000       Uiso       1.00
       H68          H  0.2682800  0.4377000  0.5398700    0.00000       Uiso       1.00
       H69          H  0.0703100  0.9734400  0.9298699    0.00000       Uiso       1.00
       H70          H  0.1093300  0.8986300  0.9364300    0.00000       Uiso       1.00
       H71          H  0.1771900  0.7939400  0.8903999    0.00000       Uiso       1.00
       H72          H  0.2131900  0.7145699  0.8872400    0.00000       Uiso       1.00
      C114          C  0.5775600  0.5810000  0.2789300    0.00000       Uiso       1.00
      C115          C  0.5996600  0.5795000  0.2322300    0.00000       Uiso       1.00
      C116          C  0.7023000  0.6015300  0.1062800    0.00000       Uiso       1.00
      C117          C  0.7251300  0.6022400  0.0611100    0.00000       Uiso       1.00
      C118          C  0.9030400  0.6934400  0.5771800    0.00000       Uiso       1.00
      C119          C  0.8808600  0.6511700  0.5809300    0.00000       Uiso       1.00
      C120          C  0.8145700  0.4647600  0.5485000    0.00000       Uiso       1.00
      C121          C  0.7934800  0.4204400  0.5468400    0.00000       Uiso       1.00
       H73          H  0.3971700  0.6961900  0.3604800    0.00000       Uiso       1.00
       H74          H  0.3578100  0.6928100  0.2787600    0.00000       Uiso       1.00
       H75          H  0.3030100  0.7433000  0.1343700    0.00000       Uiso       1.00
       H76          H  0.2637500  0.7456500  0.0534500    0.00000       Uiso       1.00
       H77          H  0.0688700  0.6629200  0.4325800    0.00000       Uiso       1.00
       H78          H  0.1078700  0.5881400  0.4391800    0.00000       Uiso       1.00
       H79          H  0.1702400  0.4749900  0.3932900    0.00000       Uiso       1.00
       H80          H  0.2068200  0.3962800  0.3897300    0.00000       Uiso       1.00
      C122          C  0.6497000  0.6101900  0.7878700    0.00000       Uiso       1.00
      C123          C  0.8534900  0.1243900  0.5360100    0.00000       Uiso       1.00
      C124          C  0.5639500  0.3848800  0.9374200    0.00000       Uiso       1.00
      C125          C  0.5548800  0.3756000  0.8749600    0.00000       Uiso       1.00
      C126          C  0.5785100  0.3770400  0.8255700    0.00000       Uiso       1.00
      C127          C  0.6232500  0.3805900  0.7318000    0.00000       Uiso       1.00
        N9          N  0.6679800  0.3462700  0.6783100    0.00000       Uiso       1.00
      C128          C  0.6918900  0.3474600  0.6328100    0.00000       Uiso       1.00
      C129          C  0.7390700  0.3463100  0.5427100    0.00000       Uiso       1.00
      C130          C  0.4055600  0.4010200  0.9569899    0.00000       Uiso       1.00
       H81          H  0.3863900  0.4130600  0.0477800    0.00000       Uiso       1.00
      C131          C  0.0245700  0.9672800  0.5234000    0.00000       Uiso       1.00
      C132          C  0.0149000  0.0260300  0.5333999    0.00000       Uiso       1.00
      C133          C  0.0787000  0.9941300  0.5228100    0.00000       Uiso       1.00
      C134          C  0.1232700  0.0794700  0.5304900    0.00000       Uiso       1.00
       N10          N  0.1524700  0.1582400  0.4894500    0.00000       Uiso       1.00
      C135          C  0.1740400  0.2040000  0.4905400    0.00000       Uiso       1.00
      C136          C  0.2169300  0.2938900  0.4883000    0.00000       Uiso       1.00
      C137          C  0.9449700  0.9495000  0.5194300    0.00000       Uiso       1.00
       H82          H  0.0291100  0.0630900  0.5400400    0.00000       Uiso       1.00
       H83          H  0.6501000  0.5735300  0.8186100    0.00000       Uiso       1.00
       H84          H  0.8410800  0.1276700  0.5795200    0.00000       Uiso       1.00
      C138          C  0.2382900  0.3459400  0.4875000    0.00000       Uiso       1.00
       N11          N  0.0463800  0.8460700  0.5194400    0.00000       Uiso       1.00
       N12          N  0.5463099  0.3770700  0.9883900    0.00000       Uiso       1.00
      C139          C  0.5245400  0.3730300  0.1212500    0.00000       Uiso       1.00
      C140          C  0.5155300  0.3595800  0.1814100    0.00000       Uiso       1.00
      C141          C  0.5245200  0.3665700  0.8566400    0.00000       Uiso       1.00
      C142          C  0.5155100  0.3507400  0.7971699    0.00000       Uiso       1.00
       H85          H  0.5298600  0.3407200  0.7576000    0.00000       Uiso       1.00
       H86          H  0.5299100  0.3508300  0.2212800    0.00000       Uiso       1.00
      C143          C  0.9354600  0.2000600  0.0147700    0.00000       Uiso       1.00
      C144          C  0.9057699  0.1830900  0.0062400    0.00000       Uiso       1.00
      C145          C  0.9354900  0.1078000  0.0144000    0.00000       Uiso       1.00
      C146          C  0.9057900  0.1247700  0.0060600    0.00000       Uiso       1.00
       H87          H  0.8860500  0.2100500  0.0010100    0.00000       Uiso       1.00
       H88          H  0.8860900  0.0977800  0.0006900    0.00000       Uiso       1.00
      C147          C  0.4205800  0.4252200  0.1952800    0.00000       Uiso       1.00
      C148          C  0.3975800  0.4272800  0.2401700    0.00000       Uiso       1.00
      C149          C  0.2927000  0.4003200  0.3593800    0.00000       Uiso       1.00
      C150          C  0.2699700  0.3991600  0.4048800    0.00000       Uiso       1.00
      C151          C  0.0828500  0.3401600  0.9740600    0.00000       Uiso       1.00
      C152          C  0.1050000  0.3825900  0.9778600    0.00000       Uiso       1.00
      C153          C  0.1806700  0.5397100  0.9361500    0.00000       Uiso       1.00
      C154          C  0.2017500  0.5841100  0.9343400    0.00000       Uiso       1.00
       H89          H  0.6013900  0.3056300  0.1174800    0.00000       Uiso       1.00
       H90          H  0.6420600  0.3094600  0.1963000    0.00000       Uiso       1.00
       H91          H  0.6933900  0.2587000  0.3478200    0.00000       Uiso       1.00
       H92          H  0.7322400  0.2559300  0.4297200    0.00000       Uiso       1.00
       H93          H  0.9060699  0.2773700  0.1159000    0.00000       Uiso       1.00
       H94          H  0.8670100  0.3516800  0.1226400    0.00000       Uiso       1.00
       H95          H  0.8214999  0.5189600  0.0935100    0.00000       Uiso       1.00
       H96          H  0.7850400  0.5959000  0.0908400    0.00000       Uiso       1.00
      C155          C  0.3984500  0.6603300  0.6516400    0.00000       Uiso       1.00
      C156          C  0.3753800  0.6581400  0.6964200    0.00000       Uiso       1.00
      C157          C  0.2960500  0.7021199  0.8630499    0.00000       Uiso       1.00
      C158          C  0.2735800  0.7034600  0.9090900    0.00000       Uiso       1.00
      C159          C  0.0836700  0.0308000  0.4721000    0.00000       Uiso       1.00
      C160          C  0.1058300  0.0732200  0.4758800    0.00000       Uiso       1.00
      C161          C  0.1850600  0.2247400  0.4337200    0.00000       Uiso       1.00
      C162          C  0.2059500  0.2694900  0.4323100    0.00000       Uiso       1.00
       H97          H  0.5620400  0.5422800  0.6951000    0.00000       Uiso       1.00
       H98          H  0.6024100  0.5388100  0.7744600    0.00000       Uiso       1.00
       H99          H  0.7001700  0.5591200  0.8406000    0.00000       Uiso       1.00
      H100          H  0.7387000  0.5606300  0.9217900    0.00000       Uiso       1.00
      H101          H  0.9075500  0.9720300  0.6166500    0.00000       Uiso       1.00
      H102          H  0.8685900  0.0465700  0.6235500    0.00000       Uiso       1.00
      H103          H  0.8263299  0.2178500  0.5908000    0.00000       Uiso       1.00
      H104          H  0.7901500  0.2957700  0.5887800    0.00000       Uiso       1.00
      C163          C  0.3533000  0.6157100  0.1828100    0.00000       Uiso       1.00
      C164          C  0.1467500  0.5681500  0.5367700    0.00000       Uiso       1.00
      C165          C  0.4361100  0.3870800  0.0389600    0.00000       Uiso       1.00
      C166          C  0.4450900  0.3802400  0.1019200    0.00000       Uiso       1.00
      C167          C  0.4210800  0.3815600  0.1505500    0.00000       Uiso       1.00
      C168          C  0.3746800  0.3859300  0.2408400    0.00000       Uiso       1.00
       N13          N  0.3305600  0.3491700  0.2944000    0.00000       Uiso       1.00
      C169          C  0.3062300  0.3496000  0.3389100    0.00000       Uiso       1.00
      C170          C  0.2595000  0.3470900  0.4299700    0.00000       Uiso       1.00
      C171          C  0.5944100  0.4022900  0.0186100    0.00000       Uiso       1.00
      H105          H  0.6136700  0.4106000  0.9274000    0.00000       Uiso       1.00
      C172          C  0.9754300  0.7250800  0.5247599    0.00000       Uiso       1.00
      C173          C  0.9851100  0.6664700  0.5357600    0.00000       Uiso       1.00
      C174          C  0.9213000  0.6980000  0.5237700    0.00000       Uiso       1.00
      C175          C  0.8766700  0.6127300  0.5314000    0.00000       Uiso       1.00
       N14          N  0.8488700  0.5315100  0.4920400    0.00000       Uiso       1.00
      C176          C  0.8271599  0.4859500  0.4928100    0.00000       Uiso       1.00
      C177          C  0.7837900  0.3969300  0.4894200    0.00000       Uiso       1.00
      C178          C  0.0550600  0.7426900  0.5203500    0.00000       Uiso       1.00
      H106          H  0.9709199  0.6295100  0.5431800    0.00000       Uiso       1.00
      H107          H  0.3547400  0.5811200  0.1494400    0.00000       Uiso       1.00
      H108          H  0.1605700  0.5674900  0.5785400    0.00000       Uiso       1.00
      C179          C  0.3981300  0.3365700  0.8248799    0.00000       Uiso       1.00
      C180          C  0.3758300  0.3384300  0.7784000    0.00000       Uiso       1.00
      C181          C  0.2948400  0.2961800  0.6145300    0.00000       Uiso       1.00
      C182          C  0.2720700  0.2952600  0.5690200    0.00000       Uiso       1.00
      C183          C  0.0961200  0.9998600  0.0772100    0.00000       Uiso       1.00
      C184          C  0.1182400  0.9574800  0.0810400    0.00000       Uiso       1.00
      C185          C  0.1831900  0.7695900  0.0463700    0.00000       Uiso       1.00
      C186          C  0.2039900  0.7247900  0.0451100    0.00000       Uiso       1.00
      H109          H  0.5596600  0.4505100  0.7788100    0.00000       Uiso       1.00
      H110          H  0.5984500  0.4529600  0.6963600    0.00000       Uiso       1.00
      H111          H  0.6929200  0.4389500  0.6203800    0.00000       Uiso       1.00
      H112          H  0.7317200  0.4377000  0.5398700    0.00000       Uiso       1.00
      H113          H  0.9296900  0.9734400  0.9298699    0.00000       Uiso       1.00
      H114          H  0.8906699  0.8986300  0.9364300    0.00000       Uiso       1.00
      H115          H  0.8228099  0.7939400  0.8903999    0.00000       Uiso       1.00
      H116          H  0.7868100  0.7145699  0.8872400    0.00000       Uiso       1.00
      C187          C  0.4224400  0.5810000  0.2789300    0.00000       Uiso       1.00
      C188          C  0.4003400  0.5795000  0.2322300    0.00000       Uiso       1.00
      C189          C  0.2977000  0.6015300  0.1062800    0.00000       Uiso       1.00
      C190          C  0.2748700  0.6022400  0.0611100    0.00000       Uiso       1.00
      C191          C  0.0969600  0.6934400  0.5771800    0.00000       Uiso       1.00
      C192          C  0.1191400  0.6511700  0.5809300    0.00000       Uiso       1.00
      C193          C  0.1854300  0.4647600  0.5485000    0.00000       Uiso       1.00
      C194          C  0.2065200  0.4204400  0.5468400    0.00000       Uiso       1.00
      H117          H  0.6028300  0.6961900  0.3604800    0.00000       Uiso       1.00
      H118          H  0.6421900  0.6928100  0.2787600    0.00000       Uiso       1.00
      H119          H  0.6969900  0.7433000  0.1343700    0.00000       Uiso       1.00
      H120          H  0.7362500  0.7456500  0.0534500    0.00000       Uiso       1.00
      H121          H  0.9311300  0.6629200  0.4325800    0.00000       Uiso       1.00
      H122          H  0.8921300  0.5881400  0.4391800    0.00000       Uiso       1.00
      H123          H  0.8297600  0.4749900  0.3932900    0.00000       Uiso       1.00
      H124          H  0.7931800  0.3962800  0.3897300    0.00000       Uiso       1.00
      C195          C  0.3503000  0.6101900  0.7878700    0.00000       Uiso       1.00
      C196          C  0.1465100  0.1243900  0.5360100    0.00000       Uiso       1.00
      C197          C  0.4360500  0.3848800  0.9374200    0.00000       Uiso       1.00
      C198          C  0.4451200  0.3756000  0.8749600    0.00000       Uiso       1.00
      C199          C  0.4214900  0.3770400  0.8255700    0.00000       Uiso       1.00
      C200          C  0.3767500  0.3805900  0.7318000    0.00000       Uiso       1.00
       N15          N  0.3320200  0.3462700  0.6783100    0.00000       Uiso       1.00
      C201          C  0.3081100  0.3474600  0.6328100    0.00000       Uiso       1.00
      C202          C  0.2609300  0.3463100  0.5427100    0.00000       Uiso       1.00
      C203          C  0.5944400  0.4010200  0.9569899    0.00000       Uiso       1.00
      H125          H  0.6136100  0.4130600  0.0477800    0.00000       Uiso       1.00
      C204          C  0.9754300  0.9672800  0.5234000    0.00000       Uiso       1.00
      C205          C  0.9851000  0.0260300  0.5333999    0.00000       Uiso       1.00
      C206          C  0.9213000  0.9941300  0.5228100    0.00000       Uiso       1.00
      C207          C  0.8767300  0.0794700  0.5304900    0.00000       Uiso       1.00
       N16          N  0.8475300  0.1582400  0.4894500    0.00000       Uiso       1.00
      C208          C  0.8259600  0.2040000  0.4905400    0.00000       Uiso       1.00
      C209          C  0.7830700  0.2938900  0.4883000    0.00000       Uiso       1.00
      C210          C  0.0550300  0.9495000  0.5194300    0.00000       Uiso       1.00
      H126          H  0.9708900  0.0630900  0.5400400    0.00000       Uiso       1.00
      H127          H  0.3499000  0.5735300  0.8186100    0.00000       Uiso       1.00
      H128          H  0.1589200  0.1276700  0.5795200    0.00000       Uiso       1.00
      C211          C  0.7617099  0.3459400  0.4875000    0.00000       Uiso       1.00
       N17          N  0.9536200  0.8460700  0.5194400    0.00000       Uiso       1.00
       N18          N  0.4536900  0.3770700  0.9883900    0.00000       Uiso       1.00
      C212          C  0.4754600  0.3730300  0.1212500    0.00000       Uiso       1.00
      C213          C  0.4844700  0.3595800  0.1814100    0.00000       Uiso       1.00
      C214          C  0.4754800  0.3665700  0.8566400    0.00000       Uiso       1.00
      C215          C  0.4844900  0.3507400  0.7971699    0.00000       Uiso       1.00
      H129          H  0.4701400  0.3407200  0.7576000    0.00000       Uiso       1.00
      H130          H  0.4700900  0.3508300  0.2212800    0.00000       Uiso       1.00
      C216          C  0.0645400  0.2000600  0.0147700    0.00000       Uiso       1.00
      C217          C  0.0942300  0.1830900  0.0062400    0.00000       Uiso       1.00
      C218          C  0.0645100  0.1078000  0.0144000    0.00000       Uiso       1.00
      C219          C  0.0942100  0.1247700  0.0060600    0.00000       Uiso       1.00
      H131          H  0.1139500  0.2100500  0.0010100    0.00000       Uiso       1.00
      H132          H  0.1139100  0.0977800  0.0006900    0.00000       Uiso       1.00
      C220          C  0.5794200  0.5747800  0.6952800    0.00000       Uiso       1.00
      C221          C  0.6024200  0.5727200  0.7401700    0.00000       Uiso       1.00
      C222          C  0.7072999  0.5996800  0.8593800    0.00000       Uiso       1.00
      C223          C  0.7300300  0.6008400  0.9048800    0.00000       Uiso       1.00
      C224          C  0.9171500  0.6598400  0.4740600    0.00000       Uiso       1.00
      C225          C  0.8950000  0.6174100  0.4778600    0.00000       Uiso       1.00
      C226          C  0.8193300  0.4602900  0.4361500    0.00000       Uiso       1.00
      C227          C  0.7982500  0.4158900  0.4343400    0.00000       Uiso       1.00
      H133          H  0.3986100  0.6943700  0.6174800    0.00000       Uiso       1.00
      H134          H  0.3579400  0.6905400  0.6963000    0.00000       Uiso       1.00
      H135          H  0.3066100  0.7413000  0.8478199    0.00000       Uiso       1.00
      H136          H  0.2677600  0.7440700  0.9297200    0.00000       Uiso       1.00
      H137          H  0.0939300  0.7226300  0.6159000    0.00000       Uiso       1.00
      H138          H  0.1329900  0.6483200  0.6226400    0.00000       Uiso       1.00
      H139          H  0.1785000  0.4810400  0.5935100    0.00000       Uiso       1.00
      H140          H  0.2149600  0.4041000  0.5908400    0.00000       Uiso       1.00
      C228          C  0.6015500  0.3396700  0.1516400    0.00000       Uiso       1.00
      C229          C  0.6246200  0.3418600  0.1964200    0.00000       Uiso       1.00
      C230          C  0.7039500  0.2978800  0.3630500    0.00000       Uiso       1.00
      C231          C  0.7264200  0.2965400  0.4090900    0.00000       Uiso       1.00
      C232          C  0.9163300  0.9692000  0.9721000    0.00000       Uiso       1.00
      C233          C  0.8941700  0.9267800  0.9758800    0.00000       Uiso       1.00
      C234          C  0.8149399  0.7752600  0.9337199    0.00000       Uiso       1.00
      C235          C  0.7940500  0.7305099  0.9323100    0.00000       Uiso       1.00
      H141          H  0.4379600  0.4577200  0.1951000    0.00000       Uiso       1.00
      H142          H  0.3975900  0.4611900  0.2744600    0.00000       Uiso       1.00
      H143          H  0.2998300  0.4408800  0.3406000    0.00000       Uiso       1.00
      H144          H  0.2613000  0.4393700  0.4217900    0.00000       Uiso       1.00
      H145          H  0.0924500  0.0279700  0.1166500    0.00000       Uiso       1.00
      H146          H  0.1314100  0.9534300  0.1235500    0.00000       Uiso       1.00
      H147          H  0.1736700  0.7821500  0.0908000    0.00000       Uiso       1.00
      H148          H  0.2098500  0.7042300  0.0887800    0.00000       Uiso       1.00
      C236          C  0.6467000  0.3842900  0.6828100    0.00000       Uiso       1.00
      C237          C  0.8532500  0.4318500  0.0367700    0.00000       Uiso       1.00
      C238          C  0.5638900  0.6129200  0.5389600    0.00000       Uiso       1.00
      C239          C  0.5549099  0.6197600  0.6019199    0.00000       Uiso       1.00
      C240          C  0.5789200  0.6184400  0.6505500    0.00000       Uiso       1.00
      C241          C  0.6253200  0.6140700  0.7408400    0.00000       Uiso       1.00
       N19          N  0.6694400  0.6508300  0.7944000    0.00000       Uiso       1.00
      C242          C  0.6937700  0.6504000  0.8389100    0.00000       Uiso       1.00
      C243          C  0.7405000  0.6529100  0.9299700    0.00000       Uiso       1.00
      C244          C  0.4055900  0.5977100  0.5186100    0.00000       Uiso       1.00
      H149          H  0.3863300  0.5894000  0.4274000    0.00000       Uiso       1.00
      C245          C  0.0245700  0.2749200  0.0247600    0.00000       Uiso       1.00
      C246          C  0.0148900  0.3335300  0.0357600    0.00000       Uiso       1.00
      C247          C  0.0787000  0.3020000  0.0237700    0.00000       Uiso       1.00
      C248          C  0.1233300  0.3872700  0.0314000    0.00000       Uiso       1.00
       N20          N  0.1511300  0.4684900  0.9920399    0.00000       Uiso       1.00
      C249          C  0.1728400  0.5140499  0.9928100    0.00000       Uiso       1.00
      C250          C  0.2162100  0.6030700  0.9894200    0.00000       Uiso       1.00
      C251          C  0.9449400  0.2573100  0.0203500    0.00000       Uiso       1.00
      H150          H  0.0290800  0.3704900  0.0431800    0.00000       Uiso       1.00
      H151          H  0.6452600  0.4188800  0.6494400    0.00000       Uiso       1.00
      H152          H  0.8394300  0.4325100  0.0785400    0.00000       Uiso       1.00
      C252          C  0.6018700  0.6634300  0.3248800    0.00000       Uiso       1.00
      C253          C  0.6241699  0.6615700  0.2784000    0.00000       Uiso       1.00
      C254          C  0.7051600  0.7038200  0.1145300    0.00000       Uiso       1.00
      C255          C  0.7279300  0.7047400  0.0690200    0.00000       Uiso       1.00
      C256          C  0.9038800  0.0001400  0.5772100    0.00000       Uiso       1.00
      C257          C  0.8817599  0.0425200  0.5810400    0.00000       Uiso       1.00
      C258          C  0.8168100  0.2304100  0.5463700    0.00000       Uiso       1.00
      C259          C  0.7960100  0.2752100  0.5451100    0.00000       Uiso       1.00
      H153          H  0.4403400  0.5494900  0.2788100    0.00000       Uiso       1.00
      H154          H  0.4015500  0.5470400  0.1963600    0.00000       Uiso       1.00
      H155          H  0.3070800  0.5610500  0.1203800    0.00000       Uiso       1.00
      H156          H  0.2682800  0.5623000  0.0398700    0.00000       Uiso       1.00
      H157          H  0.0703100  0.0265600  0.4298700    0.00000       Uiso       1.00
      H158          H  0.1093300  0.1013700  0.4364300    0.00000       Uiso       1.00
      H159          H  0.1771900  0.2060600  0.3904000    0.00000       Uiso       1.00
      H160          H  0.2131900  0.2854300  0.3872400    0.00000       Uiso       1.00
      C260          C  0.5775600  0.4190000  0.7789299    0.00000       Uiso       1.00
      C261          C  0.5996600  0.4205000  0.7322299    0.00000       Uiso       1.00
      C262          C  0.7023000  0.3984700  0.6062800    0.00000       Uiso       1.00
      C263          C  0.7251300  0.3977600  0.5611100    0.00000       Uiso       1.00
      C264          C  0.9030400  0.3065600  0.0771800    0.00000       Uiso       1.00
      C265          C  0.8808600  0.3488300  0.0809300    0.00000       Uiso       1.00
      C266          C  0.8145700  0.5352400  0.0485000    0.00000       Uiso       1.00
      C267          C  0.7934800  0.5795600  0.0468400    0.00000       Uiso       1.00
      H161          H  0.3971700  0.3038100  0.8604800    0.00000       Uiso       1.00
      H162          H  0.3578100  0.3071900  0.7787600    0.00000       Uiso       1.00
      H163          H  0.3030100  0.2567000  0.6343700    0.00000       Uiso       1.00
      H164          H  0.2637500  0.2543500  0.5534500    0.00000       Uiso       1.00
      H165          H  0.0688700  0.3370800  0.9325800    0.00000       Uiso       1.00
      H166          H  0.1078700  0.4118600  0.9391800    0.00000       Uiso       1.00
      H167          H  0.1702400  0.5250100  0.8932899    0.00000       Uiso       1.00
      H168          H  0.2068200  0.6037200  0.8897300    0.00000       Uiso       1.00
      C268          C  0.6497000  0.3898100  0.2878700    0.00000       Uiso       1.00
      C269          C  0.8534900  0.8756100  0.0360100    0.00000       Uiso       1.00
      C270          C  0.5639500  0.6151200  0.4374200    0.00000       Uiso       1.00
      C271          C  0.5548800  0.6244000  0.3749600    0.00000       Uiso       1.00
      C272          C  0.5785100  0.6229600  0.3255700    0.00000       Uiso       1.00
      C273          C  0.6232500  0.6194100  0.2318000    0.00000       Uiso       1.00
       N21          N  0.6679800  0.6537300  0.1783100    0.00000       Uiso       1.00
      C274          C  0.6918900  0.6525400  0.1328100    0.00000       Uiso       1.00
      C275          C  0.7390700  0.6536900  0.0427100    0.00000       Uiso       1.00
      C276          C  0.4055600  0.5989800  0.4569900    0.00000       Uiso       1.00
      H169          H  0.3863900  0.5869400  0.5477800    0.00000       Uiso       1.00
      C277          C  0.0245700  0.0327200  0.0234000    0.00000       Uiso       1.00
      C278          C  0.0149000  0.9739700  0.0334000    0.00000       Uiso       1.00
      C279          C  0.0787000  0.0058700  0.0228100    0.00000       Uiso       1.00
      C280          C  0.1232700  0.9205300  0.0304900    0.00000       Uiso       1.00
       N22          N  0.1524700  0.8417599  0.9894500    0.00000       Uiso       1.00
      C281          C  0.1740400  0.7960000  0.9905400    0.00000       Uiso       1.00
      C282          C  0.2169300  0.7061100  0.9883000    0.00000       Uiso       1.00
      C283          C  0.9449700  0.0505000  0.0194300    0.00000       Uiso       1.00
      H170          H  0.0291100  0.9369100  0.0400400    0.00000       Uiso       1.00
      H171          H  0.6501000  0.4264700  0.3186100    0.00000       Uiso       1.00
      H172          H  0.8410800  0.8723300  0.0795200    0.00000       Uiso       1.00
      C284          C  0.2382900  0.6540599  0.9875000    0.00000       Uiso       1.00
       N23          N  0.0463800  0.1539300  0.0194400    0.00000       Uiso       1.00
       N24          N  0.5463099  0.6229300  0.4883900    0.00000       Uiso       1.00
      C285          C  0.5245400  0.6269700  0.6212500    0.00000       Uiso       1.00
      C286          C  0.5155300  0.6404200  0.6814100    0.00000       Uiso       1.00
      C287          C  0.5245200  0.6334300  0.3566400    0.00000       Uiso       1.00
      C288          C  0.5155100  0.6492600  0.2971700    0.00000       Uiso       1.00
      H173          H  0.5298600  0.6592800  0.2576000    0.00000       Uiso       1.00
      H174          H  0.5299100  0.6491700  0.7212800    0.00000       Uiso       1.00
      C289          C  0.9354600  0.7999400  0.5147700    0.00000       Uiso       1.00
      C290          C  0.9057699  0.8169100  0.5062400    0.00000       Uiso       1.00
      C291          C  0.9354900  0.8921999  0.5144000    0.00000       Uiso       1.00
      C292          C  0.9057900  0.8752300  0.5060600    0.00000       Uiso       1.00
      H175          H  0.8860500  0.7899500  0.5010100    0.00000       Uiso       1.00
      H176          H  0.8860900  0.9022200  0.5006900    0.00000       Uiso       1.00
       N25          N  0.5000000  0.6242100  0.3931900    0.00000       Uiso       1.00
       N26          N  0.5000000  0.6188600  0.5846800    0.00000       Uiso       1.00
       Cu1         Cu  0.5000000  0.3786400  0.9894500    0.00000       Uiso       1.00
       N27          N  0.5000000  0.3757900  0.8931900    0.00000       Uiso       1.00
       N28          N  0.5000000  0.3811400  0.0846800    0.00000       Uiso       1.00
       Cu2         Cu  0.5000000  0.6213600  0.4894500    0.00000       Uiso       1.00
       N29          N  0.0000000  0.7589700  0.5184400    0.00000       Uiso       1.00
       N30          N  0.0000000  0.9334100  0.5175700    0.00000       Uiso       1.00
       Cu3         Cu  0.0000000  0.1536300  0.0156000    0.00000       Uiso       1.00
       N31          N  0.0000000  0.2410300  0.0184400    0.00000       Uiso       1.00
       N32          N  0.0000000  0.0665900  0.0175700    0.00000       Uiso       1.00
       Cu4         Cu  0.0000000  0.8463699  0.5156000    0.00000       Uiso       1.00
