data_CC-TAPH-COF
_audit_creation_date              0000-00-00
_audit_creation_method            'LanYouShi'
_symmetry_space_group_name_H-M    'P1'
_cell_length_a                    25.8040009
_cell_length_b                    6.7470002
_cell_length_c                    26.2324009
_cell_angle_alpha                 90.0000000
_cell_angle_beta                  101.7366028
_cell_angle_gamma                 90.0000000
loop_
_atom_site_label
_atom_site_type_symbol
_atom_site_fract_x
_atom_site_fract_y
_atom_site_fract_z
_atom_site_U_iso_or_equiv
_atom_site_adp_type
_atom_site_occupancy
        C1          C  0.1024106  0.4999976  0.0817889    0.00000       Uiso       1.00
        C2          C  0.5912030  0.4999976  0.5890167    0.00000       Uiso       1.00
        C3          C  0.0131347  0.4999976  0.9978404    0.00000       Uiso       1.00
        C4          C  0.5243434  0.4999976  0.4906126    0.00000       Uiso       1.00
        C5          C  0.5793036  0.4999976  0.4950306    0.00000       Uiso       1.00
        C6          C  0.0029265  0.4999976  0.0521363    0.00000       Uiso       1.00
        C7          C  0.5362428  0.4999976  0.5845987    0.00000       Uiso       1.00
        C8          C  0.1126185  0.4999976  0.0274921    0.00000       Uiso       1.00
        C9          C  0.4442574  0.4999976  0.5298522    0.00000       Uiso       1.00
       C10          C  0.0612790  0.4999976  0.9258131    0.00000       Uiso       1.00
       C11          C  0.6712890  0.4999976  0.5497772    0.00000       Uiso       1.00
       C12          C  0.0542663  0.4999976  0.1538163    0.00000       Uiso       1.00
       C13          C  0.6131881  0.4999976  0.5442973    0.00000       Uiso       1.00
       C14          C  0.0478078  0.4999976  0.0947415    0.00000       Uiso       1.00
       C15          C  0.5023584  0.4999976  0.5353320    0.00000       Uiso       1.00
       C16          C  0.0677374  0.4999976  0.9848878    0.00000       Uiso       1.00
        N1          N  0.6928009  0.4999976  0.5091416    0.00000       Uiso       1.00
        N2          N  0.0100327  0.4999976  0.1793316    0.00000       Uiso       1.00
        N3          N  0.4227456  0.4999976  0.5704877    0.00000       Uiso       1.00
        N4          N  0.1055125  0.4999976  0.9002978    0.00000       Uiso       1.00
        N5          N  0.1136307  0.4999976  0.4818507    0.00000       Uiso       1.00
        N6          N  0.0019145  0.4999976  0.5977787    0.00000       Uiso       1.00
        H1          H  0.0903207  0.4999976  0.5060394    0.00000       Uiso       1.00
        H2          H  0.0252245  0.4999976  0.5735899    0.00000       Uiso       1.00
       C17          C  0.0963349  0.4999976  0.4301307    0.00000       Uiso       1.00
       C18          C  0.9490928  0.4999976  0.5829111    0.00000       Uiso       1.00
       C19          C  0.0192104  0.4999976  0.6494986    0.00000       Uiso       1.00
       C20          C  0.1664537  0.4999976  0.4967183    0.00000       Uiso       1.00
       C21          C  0.1416721  0.4999976  0.4091550    0.00000       Uiso       1.00
       C22          C  0.9299798  0.4999976  0.6287892    0.00000       Uiso       1.00
       C23          C  0.9738744  0.4999976  0.6704743    0.00000       Uiso       1.00
       C24          C  0.1855667  0.4999976  0.4508401    0.00000       Uiso       1.00
        H3          H  0.1430195  0.4999976  0.3682323    0.00000       Uiso       1.00
        H4          H  0.8888351  0.4999976  0.6319108    0.00000       Uiso       1.00
        H5          H  0.9725270  0.4999976  0.7113971    0.00000       Uiso       1.00
        H6          H  0.2267113  0.4999976  0.4477185    0.00000       Uiso       1.00
        N7          N  0.9881747  0.4999976  0.4737246    0.00000       Uiso       1.00
        N8          N  0.1273718  0.4999976  0.6059047    0.00000       Uiso       1.00
       C25          C  0.9922333  0.4999976  0.4207315    0.00000       Uiso       1.00
       C26          C  0.9350180  0.4999976  0.4800995    0.00000       Uiso       1.00
       C27          C  0.1233132  0.4999976  0.6588978    0.00000       Uiso       1.00
       C28          C  0.1805285  0.4999976  0.5995298    0.00000       Uiso       1.00
       C29          C  0.9366810  0.4999976  0.3922288    0.00000       Uiso       1.00
       C30          C  0.9038684  0.4999976  0.4262813    0.00000       Uiso       1.00
       C31          C  0.1788655  0.4999976  0.6874006    0.00000       Uiso       1.00
       C32          C  0.2116781  0.4999976  0.6533481    0.00000       Uiso       1.00
        H7          H  0.9236880  0.4999976  0.3503272    0.00000       Uiso       1.00
        H8          H  0.8611238  0.4999976  0.4152685    0.00000       Uiso       1.00
        H9          H  0.1918584  0.4999976  0.7293021    0.00000       Uiso       1.00
       H10          H  0.2544226  0.4999976  0.6643608    0.00000       Uiso       1.00
       C33          C  0.0381083  0.4999976  0.4005724    0.00000       Uiso       1.00
       C34          C  0.9167644  0.4999976  0.5264831    0.00000       Uiso       1.00
       C35          C  0.0774369  0.4999976  0.6790569    0.00000       Uiso       1.00
       C36          C  0.1987821  0.4999976  0.5531462    0.00000       Uiso       1.00
       C37          C  0.0308615  0.4999976  0.3433858    0.00000       Uiso       1.00
       C38          C  0.8588904  0.4999976  0.5218566    0.00000       Uiso       1.00
       C39          C  0.0846837  0.4999976  0.7362435    0.00000       Uiso       1.00
       C40          C  0.2566561  0.4999976  0.5577727    0.00000       Uiso       1.00
       C41          C  0.0273281  0.3202562  0.3160899    0.00000       Uiso       1.00
       C42          C  0.8312802  0.6797327  0.5197615    0.00000       Uiso       1.00
       C43          C  0.0882172  0.3202562  0.7635394    0.00000       Uiso       1.00
       C44          C  0.2842663  0.6797327  0.5598678    0.00000       Uiso       1.00
       C45          C  0.0273281  0.6797389  0.3160899    0.00000       Uiso       1.00
       C46          C  0.8312802  0.3202625  0.5197615    0.00000       Uiso       1.00
       C47          C  0.0882172  0.6797389  0.7635394    0.00000       Uiso       1.00
       C48          C  0.2842663  0.3202625  0.5598678    0.00000       Uiso       1.00
       H11          H  0.0297200  0.1810326  0.3369692    0.00000       Uiso       1.00
       H12          H  0.8523741  0.8189868  0.5212731    0.00000       Uiso       1.00
       H13          H  0.0858252  0.1810326  0.7426601    0.00000       Uiso       1.00
       H14          H  0.2631724  0.8189868  0.5583563    0.00000       Uiso       1.00
       H15          H  0.0297200  0.8189625  0.3369692    0.00000       Uiso       1.00
       H16          H  0.8523741  0.1810084  0.5212731    0.00000       Uiso       1.00
       H17          H  0.0858252  0.8189625  0.7426601    0.00000       Uiso       1.00
       H18          H  0.2631724  0.1810084  0.5583563    0.00000       Uiso       1.00
       C49          C  0.0202353  0.3205537  0.2617577    0.00000       Uiso       1.00
       C50          C  0.7763319  0.6794064  0.5155224    0.00000       Uiso       1.00
       C51          C  0.0953100  0.3205537  0.8178716    0.00000       Uiso       1.00
       C52          C  0.3392146  0.6794064  0.5641069    0.00000       Uiso       1.00
       C53          C  0.0202353  0.6794414  0.2617577    0.00000       Uiso       1.00
       C54          C  0.7763319  0.3205887  0.5155224    0.00000       Uiso       1.00
       C55          C  0.0953100  0.6794414  0.8178716    0.00000       Uiso       1.00
       C56          C  0.3392146  0.3205887  0.5641069    0.00000       Uiso       1.00
       H19          H  0.0169345  0.1822709  0.2405159    0.00000       Uiso       1.00
       H20          H  0.7548321  0.8175903  0.5136693    0.00000       Uiso       1.00
       H21          H  0.0986107  0.1822709  0.8391135    0.00000       Uiso       1.00
       H22          H  0.3607143  0.8175903  0.5659600    0.00000       Uiso       1.00
       H23          H  0.0169345  0.8177242  0.2405159    0.00000       Uiso       1.00
       H24          H  0.7548321  0.1824048  0.5136693    0.00000       Uiso       1.00
       H25          H  0.0986107  0.8177242  0.8391135    0.00000       Uiso       1.00
       H26          H  0.3607143  0.1824048  0.5659600    0.00000       Uiso       1.00
       C57          C  0.0169061  0.4999976  0.2345908    0.00000       Uiso       1.00
       C58          C  0.7488638  0.4999976  0.5136183    0.00000       Uiso       1.00
       C59          C  0.0986392  0.4999976  0.8450385    0.00000       Uiso       1.00
       C60          C  0.3666827  0.4999976  0.5660111    0.00000       Uiso       1.00
       H27          H  0.1382483  0.4999976  0.1135574    0.00000       Uiso       1.00
       H28          H  0.6165773  0.4999976  0.6273780    0.00000       Uiso       1.00
       H29          H  0.5955255  0.4999976  0.4600455    0.00000       Uiso       1.00
       H30          H  0.4194567  0.4999976  0.4911049    0.00000       Uiso       1.00
        O1          O  0.9472095  0.4999976  0.0476304    0.00000       Uiso       1.00
       H31          H  0.0182608  0.4999976  0.5023003    0.00000       Uiso       1.00
       H32          H  0.0214834  0.4999976  0.8996959    0.00000       Uiso       1.00
       C61          C  0.9104634  0.4999976  0.0802074    0.00000       Uiso       1.00
        O2          O  0.9224007  0.4999976  0.1270306    0.00000       Uiso       1.00
       H33          H  0.9772981  0.4999976  0.9660720    0.00000       Uiso       1.00
       H34          H  0.4989691  0.4999976  0.4522513    0.00000       Uiso       1.00
       H35          H  0.5200210  0.4999976  0.6195838    0.00000       Uiso       1.00
       H36          H  0.6960897  0.4999976  0.5885244    0.00000       Uiso       1.00
        O3          O  0.1683368  0.4999976  0.0319980    0.00000       Uiso       1.00
       H37          H  0.0972844  0.4999976  0.5773290    0.00000       Uiso       1.00
       H38          H  0.0940618  0.4999976  0.1799334    0.00000       Uiso       1.00
       C62          C  0.2050831  0.4999976  0.9994220    0.00000       Uiso       1.00
        O4          O  0.1931458  0.4999976  0.9525987    0.00000       Uiso       1.00
       C63          C  0.6061028  0.4999976  0.1858844    0.00000       Uiso       1.00
       C64          C  0.5522556  0.4999976  0.1624968    0.00000       Uiso       1.00
       C65          C  0.5366657  0.4999976  0.1081735    0.00000       Uiso       1.00
       C66          C  0.5749215  0.4999976  0.0772168    0.00000       Uiso       1.00
       C67          C  0.6287718  0.4999976  0.1005974    0.00000       Uiso       1.00
       C68          C  0.6443577  0.4999976  0.1549312    0.00000       Uiso       1.00
       C69          C  0.6670266  0.4999976  0.0696442    0.00000       Uiso       1.00
       C70          C  0.7208721  0.4999976  0.0930231    0.00000       Uiso       1.00
       C71          C  0.7435411  0.4999976  0.0077361    0.00000       Uiso       1.00
       C72          C  0.7591316  0.4999976  0.0620682    0.00000       Uiso       1.00
       C73          C  0.7818008  0.4999976  0.9767821    0.00000       Uiso       1.00
       C74          C  0.8356460  0.4999976  0.0001601    0.00000       Uiso       1.00
       C75          C  0.8512319  0.4999976  0.0544938    0.00000       Uiso       1.00
       C76          C  0.8129771  0.4999976  0.0854470    0.00000       Uiso       1.00
       H39          H  0.6181287  0.4999976  0.2277986    0.00000       Uiso       1.00
       H40          H  0.5227406  0.4999976  0.1863817    0.00000       Uiso       1.00
       H41          H  0.4951277  0.4999976  0.0901372    0.00000       Uiso       1.00
       H42          H  0.5628967  0.4999976  0.0353025    0.00000       Uiso       1.00
       H43          H  0.7697749  0.4999976  0.9348679    0.00000       Uiso       1.00
       H44          H  0.8651593  0.4999976  0.9762830    0.00000       Uiso       1.00
       H45          H  0.8250030  0.4999976  0.1273613    0.00000       Uiso       1.00
       C77          C  0.5094436  0.4999976  0.8937449    0.00000       Uiso       1.00
       C78          C  0.5632908  0.4999976  0.9171325    0.00000       Uiso       1.00
       C79          C  0.5788808  0.4999976  0.9714558    0.00000       Uiso       1.00
       C80          C  0.5406247  0.4999976  0.0024116    0.00000       Uiso       1.00
       C81          C  0.4867747  0.4999976  0.9790319    0.00000       Uiso       1.00
       C82          C  0.4711888  0.4999976  0.9246982    0.00000       Uiso       1.00
       C83          C  0.4485196  0.4999976  0.0099842    0.00000       Uiso       1.00
       C84          C  0.3946744  0.4999976  0.9866063    0.00000       Uiso       1.00
       C85          C  0.3720052  0.4999976  0.0718923    0.00000       Uiso       1.00
       C86          C  0.3564146  0.4999976  0.0175603    0.00000       Uiso       1.00
       C87          C  0.3337457  0.4999976  0.1028472    0.00000       Uiso       1.00
       C88          C  0.2799002  0.4999976  0.0794684    0.00000       Uiso       1.00
       C89          C  0.2643143  0.4999976  0.0251346    0.00000       Uiso       1.00
       C90          C  0.3025694  0.4999976  0.9941823    0.00000       Uiso       1.00
       H46          H  0.4974177  0.4999976  0.8518307    0.00000       Uiso       1.00
       H47          H  0.5928059  0.4999976  0.8932477    0.00000       Uiso       1.00
       H48          H  0.6204187  0.4999976  0.9894921    0.00000       Uiso       1.00
       H49          H  0.3457716  0.4999976  0.1447615    0.00000       Uiso       1.00
       H50          H  0.2503871  0.4999976  0.1033463    0.00000       Uiso       1.00
       H51          H  0.2905435  0.4999976  0.9522681    0.00000       Uiso       1.00
       H52          H  0.4612139  0.4999976  0.0542268    0.00000       Uiso       1.00
       H53          H  0.3819809  0.4999976  0.9423637    0.00000       Uiso       1.00
       H54          H  0.4273427  0.4999976  0.9056616    0.00000       Uiso       1.00
       H55          H  0.6543324  0.4999976  0.0254017    0.00000       Uiso       1.00
       H56          H  0.7335656  0.4999976  0.1372656    0.00000       Uiso       1.00
       H57          H  0.6996949  0.4999976  0.9887015    0.00000       Uiso       1.00
