data_crystal
 
_cell_length_a    25.80400
_cell_length_b    6.74700
_cell_length_c    26.23240
_cell_angle_alpha 90.00000
_cell_angle_beta  101.73660
_cell_angle_gamma 90.00000
 
_symmetry_space_group_name_Hall 'P 1'
_symmetry_space_group_name_H-M  'P 1'
 
loop_
_symmetry_equiv_pos_as_xyz
 'x,y,z' 
 
loop_
_atom_site_label
_atom_site_type_symbol
_atom_site_fract_x
_atom_site_fract_y
_atom_site_fract_z
_atom_site_charge
C          C       0.10241   0.50000   0.08179   0.0000000000
C          C       0.59120   0.50000   0.58902   0.0000000000
C          C       0.01313   0.50000   0.99784   0.0000000000
C          C       0.52434   0.50000   0.49061   0.0000000000
C          C       0.57930   0.50000   0.49503   0.0000000000
C          C       0.00293   0.50000   0.05214   0.0000000000
C          C       0.53624   0.50000   0.58460   0.0000000000
C          C       0.11262   0.50000   0.02749   0.0000000000
C          C       0.44426   0.50000   0.52985   0.0000000000
C          C       0.06128   0.50000   0.92581   0.0000000000
C          C       0.67129   0.50000   0.54978   0.0000000000
C          C       0.05427   0.50000   0.15382   0.0000000000
C          C       0.61319   0.50000   0.54430   0.0000000000
C          C       0.04781   0.50000   0.09474   0.0000000000
C          C       0.50236   0.50000   0.53533   0.0000000000
C          C       0.06774   0.50000   0.98489   0.0000000000
N          N       0.69280   0.50000   0.50914   0.0000000000
N          N       0.01003   0.50000   0.17933   0.0000000000
N          N       0.42275   0.50000   0.57049   0.0000000000
N          N       0.10551   0.50000   0.90030   0.0000000000
N          N       0.11363   0.50000   0.48185   0.0000000000
N          N       0.00191   0.50000   0.59778   0.0000000000
H          H       0.09032   0.50000   0.50604   0.0000000000
H          H       0.02522   0.50000   0.57359   0.0000000000
C          C       0.09633   0.50000   0.43013   0.0000000000
C          C       0.94909   0.50000   0.58291   0.0000000000
C          C       0.01921   0.50000   0.64950   0.0000000000
C          C       0.16645   0.50000   0.49672   0.0000000000
C          C       0.14167   0.50000   0.40915   0.0000000000
C          C       0.92998   0.50000   0.62879   0.0000000000
C          C       0.97387   0.50000   0.67047   0.0000000000
C          C       0.18557   0.50000   0.45084   0.0000000000
H          H       0.14302   0.50000   0.36823   0.0000000000
H          H       0.88884   0.50000   0.63191   0.0000000000
H          H       0.97253   0.50000   0.71140   0.0000000000
H          H       0.22671   0.50000   0.44772   0.0000000000
N          N       0.98817   0.50000   0.47372   0.0000000000
N          N       0.12737   0.50000   0.60590   0.0000000000
C          C       0.99223   0.50000   0.42073   0.0000000000
C          C       0.93502   0.50000   0.48010   0.0000000000
C          C       0.12331   0.50000   0.65890   0.0000000000
C          C       0.18053   0.50000   0.59953   0.0000000000
C          C       0.93668   0.50000   0.39223   0.0000000000
C          C       0.90387   0.50000   0.42628   0.0000000000
C          C       0.17887   0.50000   0.68740   0.0000000000
C          C       0.21168   0.50000   0.65335   0.0000000000
H          H       0.92369   0.50000   0.35033   0.0000000000
H          H       0.86112   0.50000   0.41527   0.0000000000
H          H       0.19186   0.50000   0.72930   0.0000000000
H          H       0.25442   0.50000   0.66436   0.0000000000
C          C       0.03811   0.50000   0.40057   0.0000000000
C          C       0.91676   0.50000   0.52648   0.0000000000
C          C       0.07744   0.50000   0.67906   0.0000000000
C          C       0.19878   0.50000   0.55315   0.0000000000
C          C       0.03086   0.50000   0.34339   0.0000000000
C          C       0.85889   0.50000   0.52186   0.0000000000
C          C       0.08468   0.50000   0.73624   0.0000000000
C          C       0.25666   0.50000   0.55777   0.0000000000
C          C       0.02733   0.32026   0.31609   0.0000000000
C          C       0.83128   0.67973   0.51976   0.0000000000
C          C       0.08822   0.32026   0.76354   0.0000000000
C          C       0.28427   0.67973   0.55987   0.0000000000
C          C       0.02733   0.67974   0.31609   0.0000000000
C          C       0.83128   0.32026   0.51976   0.0000000000
C          C       0.08822   0.67974   0.76354   0.0000000000
C          C       0.28427   0.32026   0.55987   0.0000000000
H          H       0.02972   0.18103   0.33697   0.0000000000
H          H       0.85237   0.81899   0.52127   0.0000000000
H          H       0.08583   0.18103   0.74266   0.0000000000
H          H       0.26317   0.81899   0.55836   0.0000000000
H          H       0.02972   0.81896   0.33697   0.0000000000
H          H       0.85237   0.18101   0.52127   0.0000000000
H          H       0.08583   0.81896   0.74266   0.0000000000
H          H       0.26317   0.18101   0.55836   0.0000000000
C          C       0.02024   0.32055   0.26176   0.0000000000
C          C       0.77633   0.67941   0.51552   0.0000000000
C          C       0.09531   0.32055   0.81787   0.0000000000
C          C       0.33921   0.67941   0.56411   0.0000000000
C          C       0.02024   0.67944   0.26176   0.0000000000
C          C       0.77633   0.32059   0.51552   0.0000000000
C          C       0.09531   0.67944   0.81787   0.0000000000
C          C       0.33921   0.32059   0.56411   0.0000000000
H          H       0.01693   0.18227   0.24052   0.0000000000
H          H       0.75483   0.81759   0.51367   0.0000000000
H          H       0.09861   0.18227   0.83911   0.0000000000
H          H       0.36071   0.81759   0.56596   0.0000000000
H          H       0.01693   0.81772   0.24052   0.0000000000
H          H       0.75483   0.18240   0.51367   0.0000000000
H          H       0.09861   0.81772   0.83911   0.0000000000
H          H       0.36071   0.18240   0.56596   0.0000000000
C          C       0.01691   0.50000   0.23459   0.0000000000
C          C       0.74886   0.50000   0.51362   0.0000000000
C          C       0.09864   0.50000   0.84504   0.0000000000
C          C       0.36668   0.50000   0.56601   0.0000000000
H          H       0.13825   0.50000   0.11356   0.0000000000
H          H       0.61658   0.50000   0.62738   0.0000000000
H          H       0.59553   0.50000   0.46005   0.0000000000
H          H       0.41946   0.50000   0.49110   0.0000000000
O          O       0.94721   0.50000   0.04763   0.0000000000
H          H       0.01826   0.50000   0.50230   0.0000000000
H          H       0.02148   0.50000   0.89970   0.0000000000
C          C       0.91046   0.50000   0.08021   0.0000000000
O          O       0.92240   0.50000   0.12703   0.0000000000
H          H       0.97730   0.50000   0.96607   0.0000000000
H          H       0.49897   0.50000   0.45225   0.0000000000
H          H       0.52002   0.50000   0.61958   0.0000000000
H          H       0.69609   0.50000   0.58852   0.0000000000
O          O       0.16834   0.50000   0.03200   0.0000000000
H          H       0.09728   0.50000   0.57733   0.0000000000
H          H       0.09406   0.50000   0.17993   0.0000000000
C          C       0.20508   0.50000   0.99942   0.0000000000
O          O       0.19315   0.50000   0.95260   0.0000000000
C          C       0.60610   0.50000   0.18588   0.0000000000
C          C       0.55226   0.50000   0.16250   0.0000000000
C          C       0.53667   0.50000   0.10817   0.0000000000
C          C       0.57492   0.50000   0.07722   0.0000000000
C          C       0.62877   0.50000   0.10060   0.0000000000
C          C       0.64436   0.50000   0.15493   0.0000000000
C          C       0.66703   0.50000   0.06964   0.0000000000
C          C       0.72087   0.50000   0.09302   0.0000000000
C          C       0.74354   0.50000   0.00774   0.0000000000
C          C       0.75913   0.50000   0.06207   0.0000000000
C          C       0.78180   0.50000   0.97678   0.0000000000
C          C       0.83565   0.50000   0.00016   0.0000000000
C          C       0.85123   0.50000   0.05449   0.0000000000
C          C       0.81298   0.50000   0.08545   0.0000000000
H          H       0.61813   0.50000   0.22780   0.0000000000
H          H       0.52274   0.50000   0.18638   0.0000000000
H          H       0.49513   0.50000   0.09014   0.0000000000
H          H       0.56290   0.50000   0.03530   0.0000000000
H          H       0.76977   0.50000   0.93487   0.0000000000
H          H       0.86516   0.50000   0.97628   0.0000000000
H          H       0.82500   0.50000   0.12736   0.0000000000
C          C       0.50944   0.50000   0.89374   0.0000000000
C          C       0.56329   0.50000   0.91713   0.0000000000
C          C       0.57888   0.50000   0.97146   0.0000000000
C          C       0.54062   0.50000   0.00241   0.0000000000
C          C       0.48677   0.50000   0.97903   0.0000000000
C          C       0.47119   0.50000   0.92470   0.0000000000
C          C       0.44852   0.50000   0.00998   0.0000000000
C          C       0.39467   0.50000   0.98661   0.0000000000
C          C       0.37201   0.50000   0.07189   0.0000000000
C          C       0.35641   0.50000   0.01756   0.0000000000
C          C       0.33375   0.50000   0.10285   0.0000000000
C          C       0.27990   0.50000   0.07947   0.0000000000
C          C       0.26431   0.50000   0.02513   0.0000000000
C          C       0.30257   0.50000   0.99418   0.0000000000
H          H       0.49742   0.50000   0.85183   0.0000000000
H          H       0.59281   0.50000   0.89325   0.0000000000
H          H       0.62042   0.50000   0.98949   0.0000000000
H          H       0.34577   0.50000   0.14476   0.0000000000
H          H       0.25039   0.50000   0.10335   0.0000000000
H          H       0.29054   0.50000   0.95227   0.0000000000
H          H       0.46121   0.50000   0.05423   0.0000000000
H          H       0.38198   0.50000   0.94236   0.0000000000
H          H       0.42734   0.50000   0.90566   0.0000000000
H          H       0.65433   0.50000   0.02540   0.0000000000
H          H       0.73357   0.50000   0.13727   0.0000000000
H          H       0.69969   0.50000   0.98870   0.0000000000
