data_crystal
 
_cell_length_a    48.14400
_cell_length_b    48.07500
_cell_length_c    29.84600
_cell_angle_alpha 90.00000
_cell_angle_beta  90.24100
_cell_angle_gamma 90.00000
 
_symmetry_space_group_name_Hall 'P 1'
_symmetry_space_group_name_H-M  'P 1'
 
loop_
_symmetry_equiv_pos_as_xyz
 'x,y,z' 
 
loop_
_atom_site_label
_atom_site_type_symbol
_atom_site_fract_x
_atom_site_fract_y
_atom_site_fract_z
_atom_site_charge
C          C       0.11619   0.10093   0.32788   0.0000000000
C          C       0.22513   0.52126   0.10392   0.0000000000
C          C       0.31192   0.84672   0.32253   0.0000000000
C          C       0.29122   0.86653   0.32940   0.0000000000
C          C       0.29805   0.89450   0.33715   0.0000000000
C          C       0.32614   0.90276   0.33689   0.0000000000
C          C       0.34753   0.88340   0.33027   0.0000000000
C          C       0.37822   0.64362   0.24953   0.0000000000
C          C       0.36218   0.62070   0.23648   0.0000000000
C          C       0.33430   0.62410   0.22371   0.0000000000
C          C       0.32265   0.65092   0.22451   0.0000000000
C          C       0.33869   0.67385   0.23745   0.0000000000
C          C       0.59350   0.85672   0.23880   0.0000000000
C          C       0.60965   0.87949   0.22567   0.0000000000
C          C       0.59811   0.90634   0.22404   0.0000000000
C          C       0.57020   0.90993   0.23617   0.0000000000
C          C       0.55405   0.88718   0.24942   0.0000000000
C          C       0.58293   0.64747   0.33237   0.0000000000
C          C       0.60401   0.62769   0.33850   0.0000000000
C          C       0.63210   0.63572   0.33771   0.0000000000
C          C       0.63865   0.66371   0.32962   0.0000000000
C          C       0.61764   0.68344   0.32356   0.0000000000
C          C       0.27542   0.91438   0.34746   0.0000000000
C          C       0.65487   0.61586   0.34735   0.0000000000
C          C       0.81466   0.42948   0.32714   0.0000000000
C          C       0.95326   0.25528   0.24480   0.0000000000
C          C       0.97785   0.27580   0.24499   0.0000000000
C          C       0.96536   0.26577   0.31612   0.0000000000
C          C       0.97940   0.24412   0.34630   0.0000000000
C          C       0.90488   0.24042   0.21282   0.0000000000
C          C       0.90674   0.21475   0.23581   0.0000000000
C          C       0.88567   0.19477   0.23193   0.0000000000
C          C       0.86215   0.19972   0.20509   0.0000000000
C          C       0.86030   0.22504   0.18186   0.0000000000
C          C       0.88129   0.24497   0.18560   0.0000000000
C          C       0.92692   0.26373   0.21563   0.0000000000
C          C       0.75857   0.07188   0.16244   0.0000000000
N          N       0.77867   0.09263   0.17541   0.0000000000
C          C       0.91239   0.28990   0.23488   0.0000000000
C          C       0.89609   0.28775   0.27399   0.0000000000
C          C       0.88074   0.31038   0.28989   0.0000000000
C          C       0.88110   0.33596   0.26723   0.0000000000
C          C       0.89754   0.33847   0.22872   0.0000000000
C          C       0.91280   0.31585   0.21264   0.0000000000
C          C       0.95103   0.28779   0.34504   0.0000000000
N          N       0.78958   0.42630   0.34241   0.0000000000
C          C       0.77184   0.44762   0.36060   0.0000000000
C          C       0.02648   0.29038   0.21431   0.0000000000
C          C       0.05032   0.28557   0.18811   0.0000000000
C          C       0.07151   0.30532   0.18510   0.0000000000
C          C       0.06956   0.33075   0.20792   0.0000000000
C          C       0.04577   0.33600   0.23368   0.0000000000
C          C       0.02454   0.31618   0.23691   0.0000000000
C          C       0.00426   0.26723   0.21644   0.0000000000
C          C       0.17438   0.45748   0.16466   0.0000000000
N          N       0.15432   0.43684   0.17798   0.0000000000
C          C       0.01851   0.24091   0.23587   0.0000000000
C          C       0.01822   0.21508   0.21323   0.0000000000
C          C       0.03331   0.19235   0.22949   0.0000000000
C          C       0.04949   0.19461   0.26854   0.0000000000
C          C       0.04971   0.22007   0.29160   0.0000000000
C          C       0.03451   0.24281   0.27554   0.0000000000
N          N       0.14123   0.10413   0.34367   0.0000000000
C          C       0.15913   0.08279   0.36168   0.0000000000
O          O       0.94535   0.25218   0.28950   0.0000000000
O          O       0.99628   0.26296   0.17140   0.0000000000
O          O       0.98564   0.27899   0.28983   0.0000000000
O          O       0.93504   0.26817   0.17081   0.0000000000
C          C       0.73358   0.07874   0.14026   0.0000000000
C          C       0.71630   0.05780   0.12335   0.0000000000
C          C       0.72361   0.02968   0.12803   0.0000000000
C          C       0.74798   0.02279   0.15149   0.0000000000
C          C       0.76534   0.04375   0.16832   0.0000000000
C          C       0.19931   0.45045   0.14279   0.0000000000
C          C       0.21652   0.47123   0.12546   0.0000000000
C          C       0.20921   0.49938   0.12942   0.0000000000
C          C       0.18491   0.50647   0.15259   0.0000000000
C          C       0.16762   0.48567   0.16985   0.0000000000
C          C       0.18320   0.09115   0.38451   0.0000000000
C          C       0.20013   0.07165   0.40615   0.0000000000
C          C       0.19341   0.04325   0.40502   0.0000000000
C          C       0.17010   0.03459   0.38027   0.0000000000
C          C       0.15308   0.05413   0.35867   0.0000000000
C          C       0.74788   0.43927   0.38341   0.0000000000
C          C       0.73108   0.45876   0.40510   0.0000000000
C          C       0.73783   0.48716   0.40402   0.0000000000
C          C       0.76102   0.49582   0.37932   0.0000000000
C          C       0.77791   0.47628   0.35768   0.0000000000
C          C       0.72243   0.50753   0.43328   0.0000000000
C          C       0.83960   0.17862   0.20107   0.0000000000
C          C       0.86394   0.35982   0.28295   0.0000000000
C          C       0.09233   0.35159   0.20458   0.0000000000
C          C       0.06664   0.17071   0.28431   0.0000000000
C          C       0.31806   0.59966   0.20853   0.0000000000
C          C       0.12170   0.34253   0.20270   0.0000000000
C          C       0.14266   0.36215   0.19658   0.0000000000
C          C       0.13630   0.39054   0.19256   0.0000000000
C          C       0.10845   0.39933   0.19555   0.0000000000
C          C       0.08682   0.38019   0.20149   0.0000000000
C          C       0.05624   0.14340   0.28227   0.0000000000
C          C       0.07254   0.12089   0.29628   0.0000000000
C          C       0.09962   0.12512   0.31251   0.0000000000
C          C       0.11010   0.15240   0.31456   0.0000000000
C          C       0.09377   0.17493   0.30067   0.0000000000
C          C       0.83673   0.35560   0.29857   0.0000000000
C          C       0.82046   0.37810   0.31261   0.0000000000
C          C       0.83110   0.40533   0.31144   0.0000000000
C          C       0.85824   0.40956   0.29584   0.0000000000
C          C       0.87446   0.38710   0.28170   0.0000000000
C          C       0.84581   0.15009   0.19756   0.0000000000
C          C       0.82456   0.13047   0.19181   0.0000000000
C          C       0.79664   0.13899   0.18958   0.0000000000
C          C       0.79041   0.16736   0.19402   0.0000000000
C          C       0.81160   0.18694   0.19970   0.0000000000
C          C       0.15910   0.41040   0.18334   0.0000000000
C          C       0.77383   0.11905   0.18065   0.0000000000
C          C       0.47758   0.75498   0.28178   0.0000000000
C          C       0.45390   0.77646   0.28172   0.0000000000
C          C       0.46584   0.76600   0.21067   0.0000000000
C          C       0.45138   0.74462   0.18052   0.0000000000
C          C       0.52518   0.73862   0.31501   0.0000000000
C          C       0.52210   0.71245   0.29383   0.0000000000
C          C       0.54281   0.69205   0.29737   0.0000000000
C          C       0.56728   0.69712   0.32182   0.0000000000
C          C       0.57046   0.72299   0.34299   0.0000000000
C          C       0.54984   0.74330   0.33966   0.0000000000
C          C       0.50341   0.76238   0.31200   0.0000000000
C          C       0.67025   0.56956   0.37015   0.0000000000
N          N       0.64992   0.58980   0.35601   0.0000000000
C          C       0.51787   0.78880   0.29399   0.0000000000
C          C       0.53578   0.78713   0.25682   0.0000000000
C          C       0.55084   0.81031   0.24246   0.0000000000
C          C       0.54835   0.83596   0.26460   0.0000000000
C          C       0.52978   0.83806   0.30064   0.0000000000
C          C       0.51477   0.81485   0.31516   0.0000000000
C          C       0.48053   0.78781   0.18181   0.0000000000
N          N       0.64011   0.92770   0.19581   0.0000000000
C          C       0.65795   0.94890   0.17759   0.0000000000
C          C       0.40614   0.79256   0.31409   0.0000000000
C          C       0.38135   0.78763   0.33794   0.0000000000
C          C       0.36062   0.80784   0.34096   0.0000000000
C          C       0.36387   0.83386   0.32041   0.0000000000
C          C       0.38846   0.83918   0.29675   0.0000000000
C          C       0.40925   0.81887   0.29342   0.0000000000
C          C       0.42808   0.76895   0.31153   0.0000000000
C          C       0.26047   0.96067   0.37091   0.0000000000
N          N       0.28054   0.94039   0.35626   0.0000000000
C          C       0.41384   0.74238   0.29344   0.0000000000
C          C       0.41694   0.71645   0.31502   0.0000000000
C          C       0.40210   0.69311   0.30043   0.0000000000
C          C       0.38366   0.69495   0.26394   0.0000000000
C          C       0.38111   0.72050   0.24145   0.0000000000
C          C       0.39605   0.74381   0.25585   0.0000000000
N          N       0.29241   0.60235   0.19532   0.0000000000
C          C       0.27465   0.58091   0.17736   0.0000000000
O          O       0.48575   0.75207   0.23720   0.0000000000
O          O       0.43835   0.76455   0.35533   0.0000000000
O          O       0.44573   0.77951   0.23706   0.0000000000
O          O       0.49313   0.76693   0.35560   0.0000000000
C          C       0.69547   0.57726   0.39089   0.0000000000
C          C       0.71307   0.55701   0.40908   0.0000000000
C          C       0.70590   0.52874   0.40705   0.0000000000
C          C       0.68129   0.52096   0.38501   0.0000000000
C          C       0.66357   0.54124   0.36700   0.0000000000
C          C       0.23544   0.95303   0.39193   0.0000000000
C          C       0.21805   0.97333   0.41030   0.0000000000
C          C       0.22528   0.00159   0.40821   0.0000000000
C          C       0.24977   0.00929   0.38609   0.0000000000
C          C       0.26725   0.98897   0.36785   0.0000000000
C          C       0.24992   0.58908   0.15627   0.0000000000
C          C       0.23308   0.56959   0.13449   0.0000000000
C          C       0.24056   0.54138   0.13379   0.0000000000
C          C       0.26451   0.53283   0.15700   0.0000000000
C          C       0.28146   0.55238   0.17868   0.0000000000
C          C       0.68269   0.94045   0.15716   0.0000000000
C          C       0.69957   0.95964   0.13501   0.0000000000
C          C       0.69214   0.98785   0.13328   0.0000000000
C          C       0.66820   0.99672   0.15587   0.0000000000
C          C       0.65120   0.97746   0.17793   0.0000000000
C          C       0.70762   0.00756   0.10300   0.0000000000
C          C       0.20893   0.02287   0.43434   0.0000000000
C          C       0.58951   0.67567   0.32549   0.0000000000
C          C       0.56546   0.86026   0.25067   0.0000000000
C          C       0.34150   0.85513   0.32379   0.0000000000
C          C       0.36670   0.67051   0.24999   0.0000000000
C          C       0.61447   0.93060   0.20861   0.0000000000
H          H       0.10648   0.08067   0.32724   0.0000000000
H          H       0.24042   0.51142   0.08103   0.0000000000
H          H       0.21024   0.53254   0.08187   0.0000000000
H          H       0.30612   0.82531   0.31632   0.0000000000
H          H       0.26971   0.85990   0.32915   0.0000000000
H          H       0.33168   0.92427   0.34285   0.0000000000
H          H       0.36885   0.89049   0.33179   0.0000000000
H          H       0.39977   0.64036   0.25858   0.0000000000
H          H       0.37168   0.60027   0.23603   0.0000000000
H          H       0.30119   0.65424   0.21497   0.0000000000
H          H       0.32905   0.69419   0.23813   0.0000000000
H          H       0.60305   0.83635   0.24010   0.0000000000
H          H       0.63112   0.87600   0.21660   0.0000000000
H          H       0.56077   0.93038   0.23501   0.0000000000
H          H       0.53248   0.89059   0.25795   0.0000000000
H          H       0.56148   0.64084   0.33437   0.0000000000
H          H       0.59829   0.60626   0.34477   0.0000000000
H          H       0.66011   0.67044   0.32867   0.0000000000
H          H       0.62345   0.70487   0.31752   0.0000000000
H          H       0.25437   0.90652   0.34851   0.0000000000
H          H       0.67591   0.62377   0.34805   0.0000000000
H          H       0.82453   0.44967   0.32725   0.0000000000
H          H       0.96089   0.23475   0.23308   0.0000000000
H          H       0.97026   0.29631   0.23301   0.0000000000
H          H       0.98824   0.22712   0.32563   0.0000000000
H          H       0.96407   0.23480   0.36962   0.0000000000
H          H       0.99642   0.25382   0.36614   0.0000000000
H          H       0.92414   0.20966   0.25717   0.0000000000
H          H       0.88763   0.17554   0.25055   0.0000000000
H          H       0.84272   0.22937   0.16022   0.0000000000
H          H       0.87909   0.26425   0.16713   0.0000000000
H          H       0.89469   0.26823   0.29190   0.0000000000
H          H       0.86851   0.30780   0.31997   0.0000000000
H          H       0.89797   0.35778   0.21007   0.0000000000
H          H       0.92432   0.31906   0.18215   0.0000000000
H          H       0.93373   0.27838   0.36435   0.0000000000
H          H       0.94253   0.30461   0.32349   0.0000000000
H          H       0.96611   0.29732   0.36879   0.0000000000
H          H       0.05259   0.26621   0.16993   0.0000000000
H          H       0.08931   0.30076   0.16431   0.0000000000
H          H       0.04374   0.35532   0.25202   0.0000000000
H          H       0.00693   0.32148   0.25744   0.0000000000
H          H       0.00697   0.21208   0.18227   0.0000000000
H          H       0.03301   0.17315   0.21052   0.0000000000
H          H       0.06175   0.22247   0.32207   0.0000000000
H          H       0.03586   0.26224   0.29372   0.0000000000
H          H       0.98211   0.24812   0.16980   0.0000000000
H          H       0.94915   0.28307   0.16961   0.0000000000
H          H       0.72787   0.10010   0.13383   0.0000000000
H          H       0.69777   0.06363   0.10492   0.0000000000
H          H       0.75418   0.00124   0.15498   0.0000000000
H          H       0.78460   0.03807   0.18482   0.0000000000
H          H       0.20506   0.42904   0.13691   0.0000000000
H          H       0.23499   0.46523   0.10726   0.0000000000
H          H       0.17872   0.52805   0.15553   0.0000000000
H          H       0.14842   0.49149   0.18613   0.0000000000
H          H       0.18833   0.11304   0.38689   0.0000000000
H          H       0.21798   0.07887   0.42505   0.0000000000
H          H       0.16454   0.01277   0.37904   0.0000000000
H          H       0.13517   0.04658   0.34051   0.0000000000
H          H       0.74273   0.41738   0.38571   0.0000000000
H          H       0.71331   0.45155   0.42395   0.0000000000
H          H       0.76658   0.51763   0.37812   0.0000000000
H          H       0.79572   0.48383   0.33948   0.0000000000
H          H       0.73782   0.51800   0.45547   0.0000000000
H          H       0.70797   0.49641   0.45606   0.0000000000
H          H       0.32850   0.57979   0.20662   0.0000000000
H          H       0.12716   0.32079   0.20615   0.0000000000
H          H       0.16399   0.35510   0.19454   0.0000000000
H          H       0.10327   0.42116   0.19238   0.0000000000
H          H       0.06566   0.38779   0.20224   0.0000000000
H          H       0.03535   0.13944   0.27032   0.0000000000
H          H       0.06391   0.10011   0.29457   0.0000000000
H          H       0.13090   0.15636   0.32693   0.0000000000
H          H       0.10255   0.19565   0.30206   0.0000000000
H          H       0.82784   0.33491   0.29931   0.0000000000
H          H       0.79960   0.37414   0.32442   0.0000000000
H          H       0.86698   0.43031   0.29476   0.0000000000
H          H       0.89541   0.39105   0.27029   0.0000000000
H          H       0.86715   0.14300   0.19804   0.0000000000
H          H       0.83005   0.10874   0.18833   0.0000000000
H          H       0.76907   0.17446   0.19252   0.0000000000
H          H       0.80604   0.20866   0.20305   0.0000000000
H          H       0.17992   0.40220   0.18011   0.0000000000
H          H       0.75295   0.12716   0.17760   0.0000000000
H          H       0.46911   0.73476   0.29316   0.0000000000
H          H       0.46237   0.79666   0.29338   0.0000000000
H          H       0.44213   0.72786   0.20127   0.0000000000
H          H       0.46652   0.73496   0.15723   0.0000000000
H          H       0.43457   0.75466   0.16067   0.0000000000
H          H       0.50400   0.70733   0.27406   0.0000000000
H          H       0.53986   0.67241   0.28025   0.0000000000
H          H       0.58889   0.72750   0.36260   0.0000000000
H          H       0.55345   0.76306   0.35608   0.0000000000
H          H       0.53859   0.76761   0.23933   0.0000000000
H          H       0.56452   0.80811   0.21397   0.0000000000
H          H       0.52740   0.85752   0.31849   0.0000000000
H          H       0.50093   0.81738   0.34333   0.0000000000
H          H       0.46552   0.79796   0.15863   0.0000000000
H          H       0.49736   0.77803   0.16188   0.0000000000
H          H       0.48979   0.80416   0.20349   0.0000000000
H          H       0.37775   0.76777   0.35398   0.0000000000
H          H       0.34209   0.80312   0.35993   0.0000000000
H          H       0.39145   0.85894   0.28005   0.0000000000
H          H       0.42745   0.82417   0.27427   0.0000000000
H          H       0.43065   0.71412   0.34359   0.0000000000
H          H       0.40448   0.67375   0.31859   0.0000000000
H          H       0.36747   0.72252   0.21270   0.0000000000
H          H       0.39317   0.76324   0.23811   0.0000000000
H          H       0.42283   0.75913   0.37527   0.0000000000
H          H       0.50860   0.77255   0.37569   0.0000000000
H          H       0.70112   0.59885   0.39522   0.0000000000
H          H       0.73179   0.56355   0.42636   0.0000000000
H          H       0.67523   0.49928   0.38351   0.0000000000
H          H       0.64416   0.53491   0.35162   0.0000000000
H          H       0.22976   0.93146   0.39628   0.0000000000
H          H       0.19944   0.96685   0.42769   0.0000000000
H          H       0.25592   0.03095   0.38464   0.0000000000
H          H       0.28655   0.99524   0.35231   0.0000000000
H          H       0.24423   0.61087   0.15525   0.0000000000
H          H       0.21471   0.57671   0.11683   0.0000000000
H          H       0.27061   0.51115   0.15684   0.0000000000
H          H       0.29992   0.54500   0.19558   0.0000000000
H          H       0.68835   0.91864   0.15691   0.0000000000
H          H       0.71795   0.95229   0.11787   0.0000000000
H          H       0.66214   0.01841   0.15494   0.0000000000
H          H       0.63274   0.98508   0.19431   0.0000000000
H          H       0.69237   0.01718   0.07959   0.0000000000
H          H       0.72247   0.99598   0.08149   0.0000000000
H          H       0.22353   0.03397   0.45712   0.0000000000
H          H       0.19363   0.01245   0.45653   0.0000000000
H          H       0.60410   0.95049   0.20615   0.0000000000
C          C       0.88381   0.60093   0.67212   0.0000000000
C          C       0.77487   0.02126   0.89608   0.0000000000
C          C       0.68808   0.34672   0.67747   0.0000000000
C          C       0.70878   0.36653   0.67060   0.0000000000
C          C       0.70195   0.39450   0.66285   0.0000000000
C          C       0.67386   0.40276   0.66311   0.0000000000
C          C       0.65247   0.38340   0.66973   0.0000000000
C          C       0.62178   0.14362   0.75047   0.0000000000
C          C       0.63782   0.12070   0.76352   0.0000000000
C          C       0.66570   0.12410   0.77629   0.0000000000
C          C       0.67735   0.15092   0.77549   0.0000000000
C          C       0.66131   0.17385   0.76255   0.0000000000
C          C       0.40650   0.35672   0.76120   0.0000000000
C          C       0.39035   0.37949   0.77433   0.0000000000
C          C       0.40189   0.40634   0.77596   0.0000000000
C          C       0.42980   0.40993   0.76383   0.0000000000
C          C       0.44595   0.38718   0.75058   0.0000000000
C          C       0.41707   0.14747   0.66763   0.0000000000
C          C       0.39599   0.12769   0.66150   0.0000000000
C          C       0.36790   0.13572   0.66229   0.0000000000
C          C       0.36135   0.16371   0.67038   0.0000000000
C          C       0.38236   0.18344   0.67644   0.0000000000
C          C       0.72458   0.41438   0.65254   0.0000000000
C          C       0.34513   0.11586   0.65265   0.0000000000
C          C       0.18534   0.92948   0.67286   0.0000000000
C          C       0.04674   0.75528   0.75520   0.0000000000
C          C       0.02215   0.77580   0.75501   0.0000000000
C          C       0.03464   0.76577   0.68388   0.0000000000
C          C       0.02060   0.74412   0.65370   0.0000000000
C          C       0.09512   0.74042   0.78718   0.0000000000
C          C       0.09326   0.71475   0.76419   0.0000000000
C          C       0.11433   0.69477   0.76807   0.0000000000
C          C       0.13785   0.69972   0.79491   0.0000000000
C          C       0.13970   0.72504   0.81814   0.0000000000
C          C       0.11871   0.74497   0.81440   0.0000000000
C          C       0.07308   0.76373   0.78437   0.0000000000
C          C       0.24143   0.57188   0.83756   0.0000000000
N          N       0.22133   0.59263   0.82459   0.0000000000
C          C       0.08761   0.78990   0.76512   0.0000000000
C          C       0.10391   0.78775   0.72601   0.0000000000
C          C       0.11926   0.81038   0.71011   0.0000000000
C          C       0.11890   0.83596   0.73277   0.0000000000
C          C       0.10246   0.83847   0.77128   0.0000000000
C          C       0.08720   0.81585   0.78736   0.0000000000
C          C       0.04897   0.78779   0.65496   0.0000000000
N          N       0.21042   0.92630   0.65759   0.0000000000
C          C       0.22816   0.94762   0.63940   0.0000000000
C          C       0.97352   0.79038   0.78569   0.0000000000
C          C       0.94968   0.78557   0.81189   0.0000000000
C          C       0.92849   0.80532   0.81490   0.0000000000
C          C       0.93044   0.83075   0.79208   0.0000000000
C          C       0.95423   0.83600   0.76632   0.0000000000
C          C       0.97546   0.81618   0.76309   0.0000000000
C          C       0.99574   0.76723   0.78356   0.0000000000
C          C       0.82562   0.95748   0.83534   0.0000000000
N          N       0.84568   0.93684   0.82202   0.0000000000
C          C       0.98149   0.74091   0.76413   0.0000000000
C          C       0.98178   0.71508   0.78677   0.0000000000
C          C       0.96669   0.69235   0.77051   0.0000000000
C          C       0.95051   0.69461   0.73146   0.0000000000
C          C       0.95029   0.72007   0.70840   0.0000000000
C          C       0.96549   0.74281   0.72446   0.0000000000
N          N       0.85877   0.60413   0.65633   0.0000000000
C          C       0.84087   0.58279   0.63832   0.0000000000
O          O       0.05465   0.75218   0.71050   0.0000000000
O          O       0.00372   0.76296   0.82860   0.0000000000
O          O       0.01436   0.77899   0.71017   0.0000000000
O          O       0.06496   0.76817   0.82919   0.0000000000
C          C       0.26642   0.57874   0.85974   0.0000000000
C          C       0.28370   0.55780   0.87665   0.0000000000
C          C       0.27639   0.52968   0.87197   0.0000000000
C          C       0.25202   0.52279   0.84851   0.0000000000
C          C       0.23466   0.54375   0.83168   0.0000000000
C          C       0.80069   0.95045   0.85721   0.0000000000
C          C       0.78348   0.97123   0.87454   0.0000000000
C          C       0.79079   0.99938   0.87058   0.0000000000
C          C       0.81509   0.00647   0.84741   0.0000000000
C          C       0.83238   0.98567   0.83015   0.0000000000
C          C       0.81680   0.59115   0.61549   0.0000000000
C          C       0.79987   0.57165   0.59385   0.0000000000
C          C       0.80659   0.54325   0.59498   0.0000000000
C          C       0.82990   0.53459   0.61973   0.0000000000
C          C       0.84692   0.55413   0.64133   0.0000000000
C          C       0.25212   0.93927   0.61659   0.0000000000
C          C       0.26892   0.95876   0.59490   0.0000000000
C          C       0.26217   0.98716   0.59598   0.0000000000
C          C       0.23898   0.99582   0.62068   0.0000000000
C          C       0.22209   0.97628   0.64232   0.0000000000
C          C       0.27757   0.00753   0.56672   0.0000000000
C          C       0.16040   0.67862   0.79893   0.0000000000
C          C       0.13606   0.85982   0.71705   0.0000000000
C          C       0.90767   0.85159   0.79542   0.0000000000
C          C       0.93336   0.67071   0.71569   0.0000000000
C          C       0.68194   0.09966   0.79147   0.0000000000
C          C       0.87830   0.84253   0.79730   0.0000000000
C          C       0.85734   0.86215   0.80342   0.0000000000
C          C       0.86370   0.89054   0.80744   0.0000000000
C          C       0.89155   0.89933   0.80445   0.0000000000
C          C       0.91318   0.88019   0.79851   0.0000000000
C          C       0.94376   0.64340   0.71773   0.0000000000
C          C       0.92746   0.62089   0.70372   0.0000000000
C          C       0.90038   0.62512   0.68749   0.0000000000
C          C       0.88990   0.65240   0.68544   0.0000000000
C          C       0.90623   0.67493   0.69933   0.0000000000
C          C       0.16327   0.85560   0.70143   0.0000000000
C          C       0.17954   0.87810   0.68739   0.0000000000
C          C       0.16890   0.90533   0.68856   0.0000000000
C          C       0.14176   0.90956   0.70416   0.0000000000
C          C       0.12554   0.88710   0.71830   0.0000000000
C          C       0.15419   0.65009   0.80244   0.0000000000
C          C       0.17544   0.63047   0.80819   0.0000000000
C          C       0.20336   0.63899   0.81042   0.0000000000
C          C       0.20959   0.66736   0.80598   0.0000000000
C          C       0.18840   0.68694   0.80030   0.0000000000
C          C       0.84090   0.91040   0.81666   0.0000000000
C          C       0.22617   0.61905   0.81935   0.0000000000
C          C       0.52242   0.25498   0.71822   0.0000000000
C          C       0.54610   0.27646   0.71828   0.0000000000
C          C       0.53416   0.26600   0.78933   0.0000000000
C          C       0.54862   0.24462   0.81948   0.0000000000
C          C       0.47482   0.23862   0.68499   0.0000000000
C          C       0.47790   0.21245   0.70617   0.0000000000
C          C       0.45719   0.19205   0.70263   0.0000000000
C          C       0.43272   0.19712   0.67818   0.0000000000
C          C       0.42954   0.22299   0.65701   0.0000000000
C          C       0.45016   0.24330   0.66034   0.0000000000
C          C       0.49659   0.26238   0.68800   0.0000000000
C          C       0.32975   0.06956   0.62985   0.0000000000
N          N       0.35008   0.08980   0.64399   0.0000000000
C          C       0.48213   0.28880   0.70601   0.0000000000
C          C       0.46422   0.28713   0.74318   0.0000000000
C          C       0.44916   0.31031   0.75754   0.0000000000
C          C       0.45165   0.33596   0.73540   0.0000000000
C          C       0.47022   0.33806   0.69936   0.0000000000
C          C       0.48523   0.31485   0.68484   0.0000000000
C          C       0.51947   0.28781   0.81819   0.0000000000
N          N       0.35989   0.42770   0.80419   0.0000000000
C          C       0.34205   0.44890   0.82241   0.0000000000
C          C       0.59386   0.29256   0.68591   0.0000000000
C          C       0.61865   0.28763   0.66206   0.0000000000
C          C       0.63938   0.30784   0.65904   0.0000000000
C          C       0.63613   0.33386   0.67959   0.0000000000
C          C       0.61154   0.33918   0.70325   0.0000000000
C          C       0.59075   0.31887   0.70658   0.0000000000
C          C       0.57192   0.26895   0.68847   0.0000000000
C          C       0.73953   0.46067   0.62909   0.0000000000
N          N       0.71946   0.44039   0.64374   0.0000000000
C          C       0.58616   0.24238   0.70656   0.0000000000
C          C       0.58306   0.21645   0.68498   0.0000000000
C          C       0.59790   0.19311   0.69957   0.0000000000
C          C       0.61634   0.19495   0.73606   0.0000000000
C          C       0.61889   0.22050   0.75855   0.0000000000
C          C       0.60395   0.24381   0.74415   0.0000000000
N          N       0.70759   0.10235   0.80468   0.0000000000
C          C       0.72535   0.08091   0.82264   0.0000000000
O          O       0.51425   0.25207   0.76280   0.0000000000
O          O       0.56165   0.26455   0.64467   0.0000000000
O          O       0.55427   0.27951   0.76294   0.0000000000
O          O       0.50687   0.26693   0.64440   0.0000000000
C          C       0.30453   0.07726   0.60911   0.0000000000
C          C       0.28693   0.05701   0.59092   0.0000000000
C          C       0.29410   0.02874   0.59295   0.0000000000
C          C       0.31871   0.02096   0.61499   0.0000000000
C          C       0.33643   0.04124   0.63300   0.0000000000
C          C       0.76456   0.45303   0.60807   0.0000000000
C          C       0.78195   0.47333   0.58970   0.0000000000
C          C       0.77472   0.50159   0.59179   0.0000000000
C          C       0.75023   0.50929   0.61391   0.0000000000
C          C       0.73275   0.48897   0.63215   0.0000000000
C          C       0.75008   0.08908   0.84373   0.0000000000
C          C       0.76692   0.06959   0.86551   0.0000000000
C          C       0.75944   0.04138   0.86621   0.0000000000
C          C       0.73549   0.03283   0.84300   0.0000000000
C          C       0.71854   0.05238   0.82132   0.0000000000
C          C       0.31731   0.44045   0.84284   0.0000000000
C          C       0.30043   0.45964   0.86499   0.0000000000
C          C       0.30786   0.48785   0.86672   0.0000000000
C          C       0.33180   0.49672   0.84413   0.0000000000
C          C       0.34880   0.47746   0.82207   0.0000000000
C          C       0.29238   0.50756   0.89700   0.0000000000
C          C       0.79107   0.52287   0.56566   0.0000000000
C          C       0.41049   0.17567   0.67451   0.0000000000
C          C       0.43454   0.36026   0.74933   0.0000000000
C          C       0.65850   0.35513   0.67621   0.0000000000
C          C       0.63330   0.17051   0.75001   0.0000000000
C          C       0.38553   0.43060   0.79139   0.0000000000
H          H       0.89352   0.58067   0.67276   0.0000000000
H          H       0.75958   0.01142   0.91897   0.0000000000
H          H       0.78976   0.03254   0.91813   0.0000000000
H          H       0.69388   0.32531   0.68368   0.0000000000
H          H       0.73029   0.35990   0.67085   0.0000000000
H          H       0.66832   0.42427   0.65715   0.0000000000
H          H       0.63115   0.39049   0.66821   0.0000000000
H          H       0.60023   0.14036   0.74142   0.0000000000
H          H       0.62832   0.10027   0.76397   0.0000000000
H          H       0.69881   0.15424   0.78503   0.0000000000
H          H       0.67095   0.19419   0.76187   0.0000000000
H          H       0.39695   0.33635   0.75990   0.0000000000
H          H       0.36888   0.37600   0.78340   0.0000000000
H          H       0.43923   0.43038   0.76499   0.0000000000
H          H       0.46752   0.39059   0.74205   0.0000000000
H          H       0.43852   0.14084   0.66563   0.0000000000
H          H       0.40171   0.10626   0.65523   0.0000000000
H          H       0.33989   0.17044   0.67133   0.0000000000
H          H       0.37655   0.20487   0.68248   0.0000000000
H          H       0.74563   0.40652   0.65149   0.0000000000
H          H       0.32409   0.12377   0.65195   0.0000000000
H          H       0.17547   0.94967   0.67275   0.0000000000
H          H       0.03911   0.73475   0.76692   0.0000000000
H          H       0.02974   0.79631   0.76699   0.0000000000
H          H       0.01176   0.72712   0.67437   0.0000000000
H          H       0.03593   0.73480   0.63038   0.0000000000
H          H       0.00358   0.75382   0.63386   0.0000000000
H          H       0.07586   0.70966   0.74283   0.0000000000
H          H       0.11237   0.67554   0.74945   0.0000000000
H          H       0.15728   0.72937   0.83978   0.0000000000
H          H       0.12091   0.76425   0.83287   0.0000000000
H          H       0.10531   0.76823   0.70810   0.0000000000
H          H       0.13149   0.80780   0.68003   0.0000000000
H          H       0.10203   0.85778   0.78993   0.0000000000
H          H       0.07568   0.81906   0.81785   0.0000000000
H          H       0.06627   0.77838   0.63565   0.0000000000
H          H       0.05747   0.80461   0.67651   0.0000000000
H          H       0.03389   0.79732   0.63121   0.0000000000
H          H       0.94741   0.76621   0.83007   0.0000000000
H          H       0.91069   0.80076   0.83569   0.0000000000
H          H       0.95626   0.85532   0.74798   0.0000000000
H          H       0.99307   0.82148   0.74256   0.0000000000
H          H       0.99303   0.71208   0.81773   0.0000000000
H          H       0.96699   0.67315   0.78948   0.0000000000
H          H       0.93825   0.72247   0.67793   0.0000000000
H          H       0.96414   0.76224   0.70628   0.0000000000
H          H       0.01789   0.74812   0.83020   0.0000000000
H          H       0.05085   0.78307   0.83039   0.0000000000
H          H       0.27213   0.60010   0.86617   0.0000000000
H          H       0.30223   0.56363   0.89508   0.0000000000
H          H       0.24582   0.50124   0.84502   0.0000000000
H          H       0.21540   0.53807   0.81518   0.0000000000
H          H       0.79494   0.92904   0.86309   0.0000000000
H          H       0.76501   0.96523   0.89274   0.0000000000
H          H       0.82128   0.02805   0.84447   0.0000000000
H          H       0.85158   0.99149   0.81387   0.0000000000
H          H       0.81167   0.61304   0.61311   0.0000000000
H          H       0.78202   0.57887   0.57495   0.0000000000
H          H       0.83546   0.51277   0.62096   0.0000000000
H          H       0.86483   0.54658   0.65949   0.0000000000
H          H       0.25727   0.91738   0.61429   0.0000000000
H          H       0.28669   0.95155   0.57605   0.0000000000
H          H       0.23342   0.01763   0.62188   0.0000000000
H          H       0.20428   0.98383   0.66052   0.0000000000
H          H       0.26218   0.01800   0.54453   0.0000000000
H          H       0.29203   0.99641   0.54394   0.0000000000
H          H       0.67150   0.07979   0.79338   0.0000000000
H          H       0.87284   0.82079   0.79385   0.0000000000
H          H       0.83601   0.85510   0.80546   0.0000000000
H          H       0.89673   0.92116   0.80762   0.0000000000
H          H       0.93434   0.88779   0.79776   0.0000000000
H          H       0.96465   0.63944   0.72968   0.0000000000
H          H       0.93609   0.60011   0.70543   0.0000000000
H          H       0.86910   0.65636   0.67307   0.0000000000
H          H       0.89745   0.69565   0.69794   0.0000000000
H          H       0.17216   0.83491   0.70069   0.0000000000
H          H       0.20040   0.87414   0.67558   0.0000000000
H          H       0.13302   0.93031   0.70524   0.0000000000
H          H       0.10459   0.89105   0.72971   0.0000000000
H          H       0.13285   0.64300   0.80196   0.0000000000
H          H       0.16995   0.60874   0.81167   0.0000000000
H          H       0.23093   0.67446   0.80748   0.0000000000
H          H       0.19396   0.70866   0.79695   0.0000000000
H          H       0.82008   0.90220   0.81989   0.0000000000
H          H       0.24705   0.62716   0.82240   0.0000000000
H          H       0.53089   0.23476   0.70684   0.0000000000
H          H       0.53763   0.29666   0.70662   0.0000000000
H          H       0.55787   0.22786   0.79873   0.0000000000
H          H       0.53348   0.23496   0.84277   0.0000000000
H          H       0.56543   0.25466   0.83933   0.0000000000
H          H       0.49600   0.20733   0.72594   0.0000000000
H          H       0.46014   0.17241   0.71975   0.0000000000
H          H       0.41111   0.22750   0.63740   0.0000000000
H          H       0.44655   0.26306   0.64392   0.0000000000
H          H       0.46141   0.26761   0.76067   0.0000000000
H          H       0.43548   0.30811   0.78603   0.0000000000
H          H       0.47260   0.35752   0.68151   0.0000000000
H          H       0.49907   0.31738   0.65667   0.0000000000
H          H       0.53448   0.29796   0.84137   0.0000000000
H          H       0.50264   0.27803   0.83812   0.0000000000
H          H       0.51021   0.30416   0.79651   0.0000000000
H          H       0.62225   0.26777   0.64602   0.0000000000
H          H       0.65791   0.30312   0.64007   0.0000000000
H          H       0.60855   0.35894   0.71995   0.0000000000
H          H       0.57255   0.32417   0.72573   0.0000000000
H          H       0.56935   0.21412   0.65641   0.0000000000
H          H       0.59552   0.17375   0.68141   0.0000000000
H          H       0.63253   0.22252   0.78730   0.0000000000
H          H       0.60683   0.26324   0.76189   0.0000000000
H          H       0.57717   0.25913   0.62473   0.0000000000
H          H       0.49140   0.27255   0.62431   0.0000000000
H          H       0.29888   0.09885   0.60478   0.0000000000
H          H       0.26821   0.06355   0.57364   0.0000000000
H          H       0.32477   0.99928   0.61649   0.0000000000
H          H       0.35584   0.03491   0.64838   0.0000000000
H          H       0.77024   0.43146   0.60372   0.0000000000
H          H       0.80056   0.46685   0.57231   0.0000000000
H          H       0.74408   0.53095   0.61536   0.0000000000
H          H       0.71345   0.49524   0.64769   0.0000000000
H          H       0.75577   0.11087   0.84475   0.0000000000
H          H       0.78529   0.07671   0.88317   0.0000000000
H          H       0.72939   0.01115   0.84316   0.0000000000
H          H       0.70008   0.04500   0.80442   0.0000000000
H          H       0.31165   0.41864   0.84309   0.0000000000
H          H       0.28205   0.45229   0.88213   0.0000000000
H          H       0.33786   0.51841   0.84506   0.0000000000
H          H       0.36726   0.48508   0.80569   0.0000000000
H          H       0.30763   0.51718   0.92041   0.0000000000
H          H       0.27753   0.49598   0.91851   0.0000000000
H          H       0.77647   0.53397   0.54288   0.0000000000
H          H       0.80637   0.51245   0.54347   0.0000000000
H          H       0.39590   0.45049   0.79385   0.0000000000
