data_CCOF-2
_audit_creation_date              0000-00-00
_audit_creation_method            'LanYouShi'
_symmetry_space_group_name_H-M    'P1'
_cell_length_a                    48.1440010
_cell_length_b                    48.0750008
_cell_length_c                    29.8460007
_cell_angle_alpha                 90.0000000
_cell_angle_beta                  90.2409973
_cell_angle_gamma                 90.0000000
loop_
_atom_site_label
_atom_site_type_symbol
_atom_site_fract_x
_atom_site_fract_y
_atom_site_fract_z
_atom_site_U_iso_or_equiv
_atom_site_adp_type
_atom_site_occupancy
        C1          C  0.1161900  0.1009300  0.3278800    0.00000       Uiso       1.00
        C2          C  0.2251300  0.5212600  0.1039200    0.00000       Uiso       1.00
        C3          C  0.3119200  0.8467200  0.3225300    0.00000       Uiso       1.00
        C4          C  0.2912200  0.8665299  0.3294000    0.00000       Uiso       1.00
        C5          C  0.2980500  0.8945000  0.3371500    0.00000       Uiso       1.00
        C6          C  0.3261400  0.9027600  0.3368900    0.00000       Uiso       1.00
        C7          C  0.3475300  0.8834000  0.3302700    0.00000       Uiso       1.00
        C8          C  0.3782200  0.6436200  0.2495300    0.00000       Uiso       1.00
        C9          C  0.3621800  0.6207000  0.2364800    0.00000       Uiso       1.00
       C10          C  0.3343000  0.6241000  0.2237100    0.00000       Uiso       1.00
       C11          C  0.3226500  0.6509200  0.2245100    0.00000       Uiso       1.00
       C12          C  0.3386900  0.6738500  0.2374500    0.00000       Uiso       1.00
       C13          C  0.5935000  0.8567200  0.2388000    0.00000       Uiso       1.00
       C14          C  0.6096500  0.8794900  0.2256700    0.00000       Uiso       1.00
       C15          C  0.5981100  0.9063400  0.2240400    0.00000       Uiso       1.00
       C16          C  0.5702000  0.9099300  0.2361700    0.00000       Uiso       1.00
       C17          C  0.5540500  0.8871800  0.2494200    0.00000       Uiso       1.00
       C18          C  0.5829300  0.6474700  0.3323700    0.00000       Uiso       1.00
       C19          C  0.6040100  0.6276900  0.3385000    0.00000       Uiso       1.00
       C20          C  0.6321000  0.6357200  0.3377100    0.00000       Uiso       1.00
       C21          C  0.6386500  0.6637100  0.3296200    0.00000       Uiso       1.00
       C22          C  0.6176400  0.6834400  0.3235600    0.00000       Uiso       1.00
       C23          C  0.2754200  0.9143800  0.3474600    0.00000       Uiso       1.00
       C24          C  0.6548700  0.6158600  0.3473500    0.00000       Uiso       1.00
       C25          C  0.8146600  0.4294800  0.3271400    0.00000       Uiso       1.00
       C26          C  0.9532600  0.2552800  0.2448000    0.00000       Uiso       1.00
       C27          C  0.9778500  0.2758000  0.2449900    0.00000       Uiso       1.00
       C28          C  0.9653600  0.2657700  0.3161200    0.00000       Uiso       1.00
       C29          C  0.9794000  0.2441200  0.3463000    0.00000       Uiso       1.00
       C30          C  0.9048800  0.2404200  0.2128200    0.00000       Uiso       1.00
       C31          C  0.9067400  0.2147500  0.2358100    0.00000       Uiso       1.00
       C32          C  0.8856700  0.1947700  0.2319300    0.00000       Uiso       1.00
       C33          C  0.8621500  0.1997200  0.2050900    0.00000       Uiso       1.00
       C34          C  0.8603000  0.2250400  0.1818600    0.00000       Uiso       1.00
       C35          C  0.8812900  0.2449700  0.1856000    0.00000       Uiso       1.00
       C36          C  0.9269200  0.2637300  0.2156300    0.00000       Uiso       1.00
       C37          C  0.7585700  0.0718800  0.1624400    0.00000       Uiso       1.00
        N1          N  0.7786700  0.0926300  0.1754100    0.00000       Uiso       1.00
       C38          C  0.9123900  0.2899000  0.2348800    0.00000       Uiso       1.00
       C39          C  0.8960900  0.2877500  0.2739900    0.00000       Uiso       1.00
       C40          C  0.8807400  0.3103800  0.2898900    0.00000       Uiso       1.00
       C41          C  0.8811000  0.3359600  0.2672300    0.00000       Uiso       1.00
       C42          C  0.8975400  0.3384700  0.2287200    0.00000       Uiso       1.00
       C43          C  0.9128000  0.3158500  0.2126400    0.00000       Uiso       1.00
       C44          C  0.9510300  0.2877900  0.3450400    0.00000       Uiso       1.00
        N2          N  0.7895800  0.4263000  0.3424100    0.00000       Uiso       1.00
       C45          C  0.7718400  0.4476200  0.3606000    0.00000       Uiso       1.00
       C46          C  0.0264800  0.2903800  0.2143100    0.00000       Uiso       1.00
       C47          C  0.0503200  0.2855700  0.1881100    0.00000       Uiso       1.00
       C48          C  0.0715100  0.3053200  0.1851000    0.00000       Uiso       1.00
       C49          C  0.0695600  0.3307500  0.2079200    0.00000       Uiso       1.00
       C50          C  0.0457700  0.3360000  0.2336800    0.00000       Uiso       1.00
       C51          C  0.0245400  0.3161800  0.2369100    0.00000       Uiso       1.00
       C52          C  0.0042600  0.2672300  0.2164400    0.00000       Uiso       1.00
       C53          C  0.1743800  0.4574800  0.1646600    0.00000       Uiso       1.00
        N3          N  0.1543200  0.4368400  0.1779800    0.00000       Uiso       1.00
       C54          C  0.0185100  0.2409100  0.2358700    0.00000       Uiso       1.00
       C55          C  0.0182200  0.2150800  0.2132300    0.00000       Uiso       1.00
       C56          C  0.0333100  0.1923500  0.2294900    0.00000       Uiso       1.00
       C57          C  0.0494900  0.1946100  0.2685400    0.00000       Uiso       1.00
       C58          C  0.0497100  0.2200700  0.2916000    0.00000       Uiso       1.00
       C59          C  0.0345100  0.2428100  0.2755400    0.00000       Uiso       1.00
        N4          N  0.1412300  0.1041300  0.3436700    0.00000       Uiso       1.00
       C60          C  0.1591300  0.0827900  0.3616800    0.00000       Uiso       1.00
        O1          O  0.9453499  0.2521800  0.2895000    0.00000       Uiso       1.00
        O2          O  0.9962800  0.2629600  0.1714000    0.00000       Uiso       1.00
        O3          O  0.9856400  0.2789900  0.2898300    0.00000       Uiso       1.00
        O4          O  0.9350399  0.2681700  0.1708100    0.00000       Uiso       1.00
       C61          C  0.7335799  0.0787400  0.1402600    0.00000       Uiso       1.00
       C62          C  0.7163000  0.0578000  0.1233500    0.00000       Uiso       1.00
       C63          C  0.7236100  0.0296800  0.1280300    0.00000       Uiso       1.00
       C64          C  0.7479799  0.0227900  0.1514900    0.00000       Uiso       1.00
       C65          C  0.7653400  0.0437500  0.1683200    0.00000       Uiso       1.00
       C66          C  0.1993100  0.4504500  0.1427900    0.00000       Uiso       1.00
       C67          C  0.2165200  0.4712300  0.1254600    0.00000       Uiso       1.00
       C68          C  0.2092100  0.4993800  0.1294200    0.00000       Uiso       1.00
       C69          C  0.1849100  0.5064700  0.1525900    0.00000       Uiso       1.00
       C70          C  0.1676200  0.4856700  0.1698500    0.00000       Uiso       1.00
       C71          C  0.1832000  0.0911500  0.3845100    0.00000       Uiso       1.00
       C72          C  0.2001300  0.0716500  0.4061500    0.00000       Uiso       1.00
       C73          C  0.1934100  0.0432500  0.4050200    0.00000       Uiso       1.00
       C74          C  0.1701000  0.0345900  0.3802700    0.00000       Uiso       1.00
       C75          C  0.1530800  0.0541300  0.3586700    0.00000       Uiso       1.00
       C76          C  0.7478800  0.4392700  0.3834100    0.00000       Uiso       1.00
       C77          C  0.7310800  0.4587600  0.4051000    0.00000       Uiso       1.00
       C78          C  0.7378300  0.4871600  0.4040200    0.00000       Uiso       1.00
       C79          C  0.7610199  0.4958200  0.3793200    0.00000       Uiso       1.00
       C80          C  0.7779099  0.4762800  0.3576800    0.00000       Uiso       1.00
       C81          C  0.7224300  0.5075300  0.4332800    0.00000       Uiso       1.00
       C82          C  0.8396000  0.1786200  0.2010700    0.00000       Uiso       1.00
       C83          C  0.8639400  0.3598200  0.2829500    0.00000       Uiso       1.00
       C84          C  0.0923300  0.3515900  0.2045800    0.00000       Uiso       1.00
       C85          C  0.0666400  0.1707100  0.2843100    0.00000       Uiso       1.00
       C86          C  0.3180600  0.5996600  0.2085300    0.00000       Uiso       1.00
       C87          C  0.1217000  0.3425300  0.2027000    0.00000       Uiso       1.00
       C88          C  0.1426600  0.3621500  0.1965800    0.00000       Uiso       1.00
       C89          C  0.1363000  0.3905400  0.1925600    0.00000       Uiso       1.00
       C90          C  0.1084500  0.3993300  0.1955500    0.00000       Uiso       1.00
       C91          C  0.0868200  0.3801900  0.2014900    0.00000       Uiso       1.00
       C92          C  0.0562400  0.1434000  0.2822700    0.00000       Uiso       1.00
       C93          C  0.0725400  0.1208900  0.2962800    0.00000       Uiso       1.00
       C94          C  0.0996200  0.1251200  0.3125100    0.00000       Uiso       1.00
       C95          C  0.1101000  0.1524000  0.3145600    0.00000       Uiso       1.00
       C96          C  0.0937700  0.1749300  0.3006700    0.00000       Uiso       1.00
       C97          C  0.8367300  0.3556000  0.2985700    0.00000       Uiso       1.00
       C98          C  0.8204600  0.3781000  0.3126100    0.00000       Uiso       1.00
       C99          C  0.8311000  0.4053300  0.3114400    0.00000       Uiso       1.00
      C100          C  0.8582399  0.4095600  0.2958400    0.00000       Uiso       1.00
      C101          C  0.8744599  0.3871000  0.2817000    0.00000       Uiso       1.00
      C102          C  0.8458099  0.1500900  0.1975600    0.00000       Uiso       1.00
      C103          C  0.8245600  0.1304700  0.1918100    0.00000       Uiso       1.00
      C104          C  0.7966400  0.1389900  0.1895800    0.00000       Uiso       1.00
      C105          C  0.7904099  0.1673600  0.1940200    0.00000       Uiso       1.00
      C106          C  0.8116000  0.1869400  0.1997000    0.00000       Uiso       1.00
      C107          C  0.1591000  0.4104000  0.1833400    0.00000       Uiso       1.00
      C108          C  0.7738300  0.1190500  0.1806500    0.00000       Uiso       1.00
      C109          C  0.4775800  0.7549800  0.2817800    0.00000       Uiso       1.00
      C110          C  0.4539000  0.7764600  0.2817200    0.00000       Uiso       1.00
      C111          C  0.4658400  0.7660000  0.2106700    0.00000       Uiso       1.00
      C112          C  0.4513800  0.7446200  0.1805200    0.00000       Uiso       1.00
      C113          C  0.5251800  0.7386200  0.3150100    0.00000       Uiso       1.00
      C114          C  0.5221000  0.7124500  0.2938300    0.00000       Uiso       1.00
      C115          C  0.5428100  0.6920500  0.2973700    0.00000       Uiso       1.00
      C116          C  0.5672800  0.6971200  0.3218200    0.00000       Uiso       1.00
      C117          C  0.5704600  0.7229900  0.3429900    0.00000       Uiso       1.00
      C118          C  0.5498400  0.7433000  0.3396600    0.00000       Uiso       1.00
      C119          C  0.5034100  0.7623799  0.3120000    0.00000       Uiso       1.00
      C120          C  0.6702499  0.5695600  0.3701500    0.00000       Uiso       1.00
        N5          N  0.6499200  0.5898000  0.3560100    0.00000       Uiso       1.00
      C121          C  0.5178699  0.7887999  0.2939900    0.00000       Uiso       1.00
      C122          C  0.5357800  0.7871300  0.2568200    0.00000       Uiso       1.00
      C123          C  0.5508400  0.8103100  0.2424600    0.00000       Uiso       1.00
      C124          C  0.5483500  0.8359600  0.2646000    0.00000       Uiso       1.00
      C125          C  0.5297800  0.8380600  0.3006400    0.00000       Uiso       1.00
      C126          C  0.5147700  0.8148500  0.3151600    0.00000       Uiso       1.00
      C127          C  0.4805300  0.7878100  0.1818100    0.00000       Uiso       1.00
        N6          N  0.6401100  0.9277000  0.1958100    0.00000       Uiso       1.00
      C128          C  0.6579500  0.9489000  0.1775900    0.00000       Uiso       1.00
      C129          C  0.4061400  0.7925600  0.3140900    0.00000       Uiso       1.00
      C130          C  0.3813500  0.7876300  0.3379400    0.00000       Uiso       1.00
      C131          C  0.3606200  0.8078399  0.3409600    0.00000       Uiso       1.00
      C132          C  0.3638700  0.8338600  0.3204100    0.00000       Uiso       1.00
      C133          C  0.3884600  0.8391800  0.2967500    0.00000       Uiso       1.00
      C134          C  0.4092500  0.8188700  0.2934200    0.00000       Uiso       1.00
      C135          C  0.4280800  0.7689500  0.3115300    0.00000       Uiso       1.00
      C136          C  0.2604700  0.9606700  0.3709100    0.00000       Uiso       1.00
        N7          N  0.2805400  0.9403899  0.3562600    0.00000       Uiso       1.00
      C137          C  0.4138400  0.7423800  0.2934400    0.00000       Uiso       1.00
      C138          C  0.4169400  0.7164500  0.3150200    0.00000       Uiso       1.00
      C139          C  0.4021000  0.6931100  0.3004300    0.00000       Uiso       1.00
      C140          C  0.3836600  0.6949500  0.2639400    0.00000       Uiso       1.00
      C141          C  0.3811100  0.7205000  0.2414500    0.00000       Uiso       1.00
      C142          C  0.3960500  0.7438100  0.2558500    0.00000       Uiso       1.00
        N8          N  0.2924100  0.6023500  0.1953200    0.00000       Uiso       1.00
      C143          C  0.2746500  0.5809100  0.1773600    0.00000       Uiso       1.00
        O5          O  0.4857500  0.7520700  0.2372000    0.00000       Uiso       1.00
        O6          O  0.4383500  0.7645500  0.3553300    0.00000       Uiso       1.00
        O7          O  0.4457300  0.7795100  0.2370600    0.00000       Uiso       1.00
        O8          O  0.4931300  0.7669300  0.3556000    0.00000       Uiso       1.00
      C144          C  0.6954700  0.5772600  0.3908900    0.00000       Uiso       1.00
      C145          C  0.7130700  0.5570100  0.4090800    0.00000       Uiso       1.00
      C146          C  0.7059000  0.5287400  0.4070500    0.00000       Uiso       1.00
      C147          C  0.6812900  0.5209600  0.3850100    0.00000       Uiso       1.00
      C148          C  0.6635700  0.5412400  0.3670000    0.00000       Uiso       1.00
      C149          C  0.2354400  0.9530300  0.3919300    0.00000       Uiso       1.00
      C150          C  0.2180500  0.9733300  0.4103000    0.00000       Uiso       1.00
      C151          C  0.2252800  0.0015900  0.4082100    0.00000       Uiso       1.00
      C152          C  0.2497700  0.0092900  0.3860900    0.00000       Uiso       1.00
      C153          C  0.2672500  0.9889699  0.3678500    0.00000       Uiso       1.00
      C154          C  0.2499200  0.5890800  0.1562700    0.00000       Uiso       1.00
      C155          C  0.2330800  0.5695900  0.1344900    0.00000       Uiso       1.00
      C156          C  0.2405600  0.5413800  0.1337900    0.00000       Uiso       1.00
      C157          C  0.2645100  0.5328300  0.1570000    0.00000       Uiso       1.00
      C158          C  0.2814600  0.5523800  0.1786800    0.00000       Uiso       1.00
      C159          C  0.6826900  0.9404500  0.1571600    0.00000       Uiso       1.00
      C160          C  0.6995700  0.9596400  0.1350100    0.00000       Uiso       1.00
      C161          C  0.6921400  0.9878500  0.1332800    0.00000       Uiso       1.00
      C162          C  0.6682000  0.9967200  0.1558700    0.00000       Uiso       1.00
      C163          C  0.6511999  0.9774600  0.1779300    0.00000       Uiso       1.00
      C164          C  0.7076200  0.0075600  0.1030000    0.00000       Uiso       1.00
      C165          C  0.2089300  0.0228700  0.4343400    0.00000       Uiso       1.00
      C166          C  0.5895100  0.6756700  0.3254900    0.00000       Uiso       1.00
      C167          C  0.5654600  0.8602600  0.2506700    0.00000       Uiso       1.00
      C168          C  0.3415000  0.8551300  0.3237900    0.00000       Uiso       1.00
      C169          C  0.3667000  0.6705100  0.2499900    0.00000       Uiso       1.00
      C170          C  0.6144699  0.9306000  0.2086100    0.00000       Uiso       1.00
        H1          H  0.1064800  0.0806700  0.3272400    0.00000       Uiso       1.00
        H2          H  0.2404200  0.5114200  0.0810300    0.00000       Uiso       1.00
        H3          H  0.2102400  0.5325400  0.0818700    0.00000       Uiso       1.00
        H4          H  0.3061200  0.8253099  0.3163200    0.00000       Uiso       1.00
        H5          H  0.2697100  0.8598999  0.3291500    0.00000       Uiso       1.00
        H6          H  0.3316800  0.9242700  0.3428500    0.00000       Uiso       1.00
        H7          H  0.3688500  0.8904900  0.3317900    0.00000       Uiso       1.00
        H8          H  0.3997700  0.6403600  0.2585800    0.00000       Uiso       1.00
        H9          H  0.3716800  0.6002700  0.2360300    0.00000       Uiso       1.00
       H10          H  0.3011900  0.6542400  0.2149700    0.00000       Uiso       1.00
       H11          H  0.3290500  0.6941900  0.2381300    0.00000       Uiso       1.00
       H12          H  0.6030500  0.8363500  0.2401000    0.00000       Uiso       1.00
       H13          H  0.6311200  0.8760000  0.2166000    0.00000       Uiso       1.00
       H14          H  0.5607700  0.9303800  0.2350100    0.00000       Uiso       1.00
       H15          H  0.5324800  0.8905900  0.2579500    0.00000       Uiso       1.00
       H16          H  0.5614800  0.6408400  0.3343700    0.00000       Uiso       1.00
       H17          H  0.5982900  0.6062600  0.3447700    0.00000       Uiso       1.00
       H18          H  0.6601100  0.6704400  0.3286700    0.00000       Uiso       1.00
       H19          H  0.6234500  0.7048699  0.3175200    0.00000       Uiso       1.00
       H20          H  0.2543700  0.9065199  0.3485100    0.00000       Uiso       1.00
       H21          H  0.6759100  0.6237700  0.3480500    0.00000       Uiso       1.00
       H22          H  0.8245300  0.4496700  0.3272500    0.00000       Uiso       1.00
       H23          H  0.9608899  0.2347500  0.2330800    0.00000       Uiso       1.00
       H24          H  0.9702600  0.2963100  0.2330100    0.00000       Uiso       1.00
       H25          H  0.9882399  0.2271200  0.3256300    0.00000       Uiso       1.00
       H26          H  0.9640700  0.2348000  0.3696200    0.00000       Uiso       1.00
       H27          H  0.9964200  0.2538200  0.3661400    0.00000       Uiso       1.00
       H28          H  0.9241400  0.2096600  0.2571700    0.00000       Uiso       1.00
       H29          H  0.8876300  0.1755400  0.2505500    0.00000       Uiso       1.00
       H30          H  0.8427199  0.2293700  0.1602200    0.00000       Uiso       1.00
       H31          H  0.8790900  0.2642500  0.1671300    0.00000       Uiso       1.00
       H32          H  0.8946900  0.2682300  0.2919000    0.00000       Uiso       1.00
       H33          H  0.8685099  0.3078000  0.3199700    0.00000       Uiso       1.00
       H34          H  0.8979700  0.3577800  0.2100700    0.00000       Uiso       1.00
       H35          H  0.9243200  0.3190600  0.1821500    0.00000       Uiso       1.00
       H36          H  0.9337299  0.2783800  0.3643500    0.00000       Uiso       1.00
       H37          H  0.9425300  0.3046100  0.3234900    0.00000       Uiso       1.00
       H38          H  0.9661100  0.2973200  0.3687900    0.00000       Uiso       1.00
       H39          H  0.0525900  0.2662100  0.1699300    0.00000       Uiso       1.00
       H40          H  0.0893100  0.3007600  0.1643100    0.00000       Uiso       1.00
       H41          H  0.0437400  0.3553200  0.2520200    0.00000       Uiso       1.00
       H42          H  0.0069300  0.3214800  0.2574400    0.00000       Uiso       1.00
       H43          H  0.0069700  0.2120800  0.1822700    0.00000       Uiso       1.00
       H44          H  0.0330100  0.1731500  0.2105200    0.00000       Uiso       1.00
       H45          H  0.0617500  0.2224700  0.3220700    0.00000       Uiso       1.00
       H46          H  0.0358600  0.2622400  0.2937200    0.00000       Uiso       1.00
       H47          H  0.9821100  0.2481200  0.1698000    0.00000       Uiso       1.00
       H48          H  0.9491500  0.2830700  0.1696100    0.00000       Uiso       1.00
       H49          H  0.7278700  0.1001000  0.1338300    0.00000       Uiso       1.00
       H50          H  0.6977700  0.0636300  0.1049200    0.00000       Uiso       1.00
       H51          H  0.7541800  0.0012400  0.1549800    0.00000       Uiso       1.00
       H52          H  0.7846000  0.0380700  0.1848200    0.00000       Uiso       1.00
       H53          H  0.2050600  0.4290400  0.1369100    0.00000       Uiso       1.00
       H54          H  0.2349900  0.4652300  0.1072600    0.00000       Uiso       1.00
       H55          H  0.1787200  0.5280500  0.1555300    0.00000       Uiso       1.00
       H56          H  0.1484200  0.4914900  0.1861300    0.00000       Uiso       1.00
       H57          H  0.1883300  0.1130400  0.3868900    0.00000       Uiso       1.00
       H58          H  0.2179800  0.0788700  0.4250500    0.00000       Uiso       1.00
       H59          H  0.1645400  0.0127700  0.3790400    0.00000       Uiso       1.00
       H60          H  0.1351700  0.0465800  0.3405100    0.00000       Uiso       1.00
       H61          H  0.7427300  0.4173800  0.3857100    0.00000       Uiso       1.00
       H62          H  0.7133100  0.4515500  0.4239500    0.00000       Uiso       1.00
       H63          H  0.7665799  0.5176300  0.3781200    0.00000       Uiso       1.00
       H64          H  0.7957200  0.4838300  0.3394800    0.00000       Uiso       1.00
       H65          H  0.7378200  0.5179999  0.4554700    0.00000       Uiso       1.00
       H66          H  0.7079700  0.4964100  0.4560600    0.00000       Uiso       1.00
       H67          H  0.3285000  0.5797900  0.2066200    0.00000       Uiso       1.00
       H68          H  0.1271600  0.3207900  0.2061500    0.00000       Uiso       1.00
       H69          H  0.1639900  0.3551000  0.1945400    0.00000       Uiso       1.00
       H70          H  0.1032700  0.4211600  0.1923800    0.00000       Uiso       1.00
       H71          H  0.0656600  0.3877900  0.2022400    0.00000       Uiso       1.00
       H72          H  0.0353500  0.1394400  0.2703200    0.00000       Uiso       1.00
       H73          H  0.0639100  0.1001100  0.2945700    0.00000       Uiso       1.00
       H74          H  0.1309000  0.1563600  0.3269300    0.00000       Uiso       1.00
       H75          H  0.1025500  0.1956500  0.3020600    0.00000       Uiso       1.00
       H76          H  0.8278400  0.3349100  0.2993100    0.00000       Uiso       1.00
       H77          H  0.7996000  0.3741400  0.3244200    0.00000       Uiso       1.00
       H78          H  0.8669800  0.4303100  0.2947600    0.00000       Uiso       1.00
       H79          H  0.8954100  0.3910500  0.2702900    0.00000       Uiso       1.00
       H80          H  0.8671500  0.1430000  0.1980400    0.00000       Uiso       1.00
       H81          H  0.8300500  0.1087400  0.1883300    0.00000       Uiso       1.00
       H82          H  0.7690700  0.1744600  0.1925200    0.00000       Uiso       1.00
       H83          H  0.8060400  0.2086600  0.2030500    0.00000       Uiso       1.00
       H84          H  0.1799200  0.4022000  0.1801100    0.00000       Uiso       1.00
       H85          H  0.7529500  0.1271600  0.1776000    0.00000       Uiso       1.00
       H86          H  0.4691100  0.7347600  0.2931600    0.00000       Uiso       1.00
       H87          H  0.4623700  0.7966600  0.2933800    0.00000       Uiso       1.00
       H88          H  0.4421300  0.7278600  0.2012700    0.00000       Uiso       1.00
       H89          H  0.4665200  0.7349600  0.1572300    0.00000       Uiso       1.00
       H90          H  0.4345700  0.7546600  0.1606700    0.00000       Uiso       1.00
       H91          H  0.5040000  0.7073300  0.2740600    0.00000       Uiso       1.00
       H92          H  0.5398600  0.6724100  0.2802500    0.00000       Uiso       1.00
       H93          H  0.5888900  0.7275000  0.3626000    0.00000       Uiso       1.00
       H94          H  0.5534500  0.7630600  0.3560800    0.00000       Uiso       1.00
       H95          H  0.5385900  0.7676100  0.2393300    0.00000       Uiso       1.00
       H96          H  0.5645200  0.8081100  0.2139700    0.00000       Uiso       1.00
       H97          H  0.5274000  0.8575200  0.3184900    0.00000       Uiso       1.00
       H98          H  0.5009300  0.8173800  0.3433300    0.00000       Uiso       1.00
       H99          H  0.4655200  0.7979600  0.1586300    0.00000       Uiso       1.00
      H100          H  0.4973600  0.7780300  0.1618800    0.00000       Uiso       1.00
      H101          H  0.4897900  0.8041600  0.2034900    0.00000       Uiso       1.00
      H102          H  0.3777500  0.7677699  0.3539800    0.00000       Uiso       1.00
      H103          H  0.3420900  0.8031200  0.3599300    0.00000       Uiso       1.00
      H104          H  0.3914500  0.8589400  0.2800500    0.00000       Uiso       1.00
      H105          H  0.4274500  0.8241699  0.2742700    0.00000       Uiso       1.00
      H106          H  0.4306500  0.7141200  0.3435900    0.00000       Uiso       1.00
      H107          H  0.4044800  0.6737500  0.3185900    0.00000       Uiso       1.00
      H108          H  0.3674700  0.7225200  0.2127000    0.00000       Uiso       1.00
      H109          H  0.3931700  0.7632400  0.2381100    0.00000       Uiso       1.00
      H110          H  0.4228300  0.7591300  0.3752700    0.00000       Uiso       1.00
      H111          H  0.5086000  0.7725500  0.3756900    0.00000       Uiso       1.00
      H112          H  0.7011200  0.5988500  0.3952200    0.00000       Uiso       1.00
      H113          H  0.7317899  0.5635500  0.4263600    0.00000       Uiso       1.00
      H114          H  0.6752300  0.4992800  0.3835100    0.00000       Uiso       1.00
      H115          H  0.6441600  0.5349100  0.3516200    0.00000       Uiso       1.00
      H116          H  0.2297600  0.9314600  0.3962800    0.00000       Uiso       1.00
      H117          H  0.1994400  0.9668500  0.4276900    0.00000       Uiso       1.00
      H118          H  0.2559200  0.0309500  0.3846400    0.00000       Uiso       1.00
      H119          H  0.2865500  0.9952400  0.3523100    0.00000       Uiso       1.00
      H120          H  0.2442300  0.6108700  0.1552500    0.00000       Uiso       1.00
      H121          H  0.2147100  0.5767100  0.1168300    0.00000       Uiso       1.00
      H122          H  0.2706100  0.5111500  0.1568400    0.00000       Uiso       1.00
      H123          H  0.2999200  0.5450000  0.1955800    0.00000       Uiso       1.00
      H124          H  0.6883500  0.9186400  0.1569100    0.00000       Uiso       1.00
      H125          H  0.7179499  0.9522900  0.1178700    0.00000       Uiso       1.00
      H126          H  0.6621400  0.0184100  0.1549400    0.00000       Uiso       1.00
      H127          H  0.6327400  0.9850799  0.1943100    0.00000       Uiso       1.00
      H128          H  0.6923700  0.0171800  0.0795900    0.00000       Uiso       1.00
      H129          H  0.7224700  0.9959800  0.0814900    0.00000       Uiso       1.00
      H130          H  0.2235300  0.0339700  0.4571200    0.00000       Uiso       1.00
      H131          H  0.1936300  0.0124500  0.4565300    0.00000       Uiso       1.00
      H132          H  0.6041000  0.9504899  0.2061500    0.00000       Uiso       1.00
      C171          C  0.8838099  0.6009300  0.6721200    0.00000       Uiso       1.00
      C172          C  0.7748700  0.0212600  0.8960800    0.00000       Uiso       1.00
      C173          C  0.6880800  0.3467200  0.6774700    0.00000       Uiso       1.00
      C174          C  0.7087800  0.3665300  0.6706000    0.00000       Uiso       1.00
      C175          C  0.7019500  0.3945000  0.6628500    0.00000       Uiso       1.00
      C176          C  0.6738600  0.4027600  0.6631100    0.00000       Uiso       1.00
      C177          C  0.6524699  0.3834000  0.6697299    0.00000       Uiso       1.00
      C178          C  0.6217800  0.1436200  0.7504700    0.00000       Uiso       1.00
      C179          C  0.6378199  0.1207000  0.7635200    0.00000       Uiso       1.00
      C180          C  0.6657000  0.1241000  0.7762900    0.00000       Uiso       1.00
      C181          C  0.6773500  0.1509200  0.7754900    0.00000       Uiso       1.00
      C182          C  0.6613100  0.1738500  0.7625499    0.00000       Uiso       1.00
      C183          C  0.4065000  0.3567200  0.7612000    0.00000       Uiso       1.00
      C184          C  0.3903500  0.3794900  0.7743300    0.00000       Uiso       1.00
      C185          C  0.4018900  0.4063400  0.7759600    0.00000       Uiso       1.00
      C186          C  0.4298000  0.4099300  0.7638299    0.00000       Uiso       1.00
      C187          C  0.4459500  0.3871800  0.7505800    0.00000       Uiso       1.00
      C188          C  0.4170699  0.1474700  0.6676300    0.00000       Uiso       1.00
      C189          C  0.3959900  0.1276900  0.6615000    0.00000       Uiso       1.00
      C190          C  0.3679000  0.1357200  0.6622900    0.00000       Uiso       1.00
      C191          C  0.3613500  0.1637100  0.6703800    0.00000       Uiso       1.00
      C192          C  0.3823600  0.1834400  0.6764400    0.00000       Uiso       1.00
      C193          C  0.7245800  0.4143800  0.6525400    0.00000       Uiso       1.00
      C194          C  0.3451300  0.1158600  0.6526499    0.00000       Uiso       1.00
      C195          C  0.1853400  0.9294800  0.6728600    0.00000       Uiso       1.00
      C196          C  0.0467400  0.7552800  0.7552000    0.00000       Uiso       1.00
      C197          C  0.0221500  0.7758000  0.7550099    0.00000       Uiso       1.00
      C198          C  0.0346400  0.7657700  0.6838800    0.00000       Uiso       1.00
      C199          C  0.0206000  0.7441199  0.6537000    0.00000       Uiso       1.00
      C200          C  0.0951200  0.7404200  0.7871800    0.00000       Uiso       1.00
      C201          C  0.0932600  0.7147500  0.7641900    0.00000       Uiso       1.00
      C202          C  0.1143300  0.6947700  0.7680700    0.00000       Uiso       1.00
      C203          C  0.1378500  0.6997200  0.7949100    0.00000       Uiso       1.00
      C204          C  0.1397000  0.7250400  0.8181400    0.00000       Uiso       1.00
      C205          C  0.1187100  0.7449700  0.8144000    0.00000       Uiso       1.00
      C206          C  0.0730800  0.7637300  0.7843699    0.00000       Uiso       1.00
      C207          C  0.2414300  0.5718800  0.8375600    0.00000       Uiso       1.00
        N9          N  0.2213300  0.5926300  0.8245900    0.00000       Uiso       1.00
      C208          C  0.0876100  0.7898999  0.7651200    0.00000       Uiso       1.00
      C209          C  0.1039100  0.7877500  0.7260100    0.00000       Uiso       1.00
      C210          C  0.1192600  0.8103800  0.7101100    0.00000       Uiso       1.00
      C211          C  0.1189000  0.8359600  0.7327700    0.00000       Uiso       1.00
      C212          C  0.1024600  0.8384700  0.7712800    0.00000       Uiso       1.00
      C213          C  0.0872000  0.8158500  0.7873600    0.00000       Uiso       1.00
      C214          C  0.0489700  0.7877900  0.6549600    0.00000       Uiso       1.00
       N10          N  0.2104200  0.9263000  0.6575900    0.00000       Uiso       1.00
      C215          C  0.2281600  0.9476200  0.6394000    0.00000       Uiso       1.00
      C216          C  0.9735199  0.7903799  0.7856900    0.00000       Uiso       1.00
      C217          C  0.9496799  0.7855700  0.8118900    0.00000       Uiso       1.00
      C218          C  0.9284899  0.8053200  0.8149000    0.00000       Uiso       1.00
      C219          C  0.9304399  0.8307500  0.7920800    0.00000       Uiso       1.00
      C220          C  0.9542300  0.8360000  0.7663199    0.00000       Uiso       1.00
      C221          C  0.9754599  0.8161800  0.7630900    0.00000       Uiso       1.00
      C222          C  0.9957399  0.7672300  0.7835600    0.00000       Uiso       1.00
      C223          C  0.8256199  0.9574800  0.8353400    0.00000       Uiso       1.00
       N11          N  0.8456799  0.9368399  0.8220200    0.00000       Uiso       1.00
      C224          C  0.9814900  0.7409100  0.7641300    0.00000       Uiso       1.00
      C225          C  0.9817799  0.7150800  0.7867700    0.00000       Uiso       1.00
      C226          C  0.9666900  0.6923500  0.7705100    0.00000       Uiso       1.00
      C227          C  0.9505099  0.6946100  0.7314600    0.00000       Uiso       1.00
      C228          C  0.9502900  0.7200700  0.7084000    0.00000       Uiso       1.00
      C229          C  0.9654899  0.7428100  0.7244600    0.00000       Uiso       1.00
       N12          N  0.8587700  0.6041300  0.6563300    0.00000       Uiso       1.00
      C230          C  0.8408700  0.5827900  0.6383200    0.00000       Uiso       1.00
        O9          O  0.0546500  0.7521800  0.7104999    0.00000       Uiso       1.00
       O10          O  0.0037200  0.7629600  0.8286000    0.00000       Uiso       1.00
       O11          O  0.0143600  0.7789900  0.7101700    0.00000       Uiso       1.00
       O12          O  0.0649600  0.7681699  0.8291900    0.00000       Uiso       1.00
      C231          C  0.2664200  0.5787400  0.8597400    0.00000       Uiso       1.00
      C232          C  0.2837000  0.5578000  0.8766500    0.00000       Uiso       1.00
      C233          C  0.2763900  0.5296800  0.8719699    0.00000       Uiso       1.00
      C234          C  0.2520200  0.5227900  0.8485100    0.00000       Uiso       1.00
      C235          C  0.2346600  0.5437500  0.8316800    0.00000       Uiso       1.00
      C236          C  0.8006900  0.9504499  0.8572100    0.00000       Uiso       1.00
      C237          C  0.7834800  0.9712300  0.8745400    0.00000       Uiso       1.00
      C238          C  0.7907900  0.9993800  0.8705800    0.00000       Uiso       1.00
      C239          C  0.8150900  0.0064700  0.8474100    0.00000       Uiso       1.00
      C240          C  0.8323799  0.9856700  0.8301500    0.00000       Uiso       1.00
      C241          C  0.8167999  0.5911500  0.6154900    0.00000       Uiso       1.00
      C242          C  0.7998700  0.5716500  0.5938500    0.00000       Uiso       1.00
      C243          C  0.8065900  0.5432500  0.5949800    0.00000       Uiso       1.00
      C244          C  0.8298999  0.5345900  0.6197300    0.00000       Uiso       1.00
      C245          C  0.8469200  0.5541300  0.6413300    0.00000       Uiso       1.00
      C246          C  0.2521200  0.9392700  0.6165900    0.00000       Uiso       1.00
      C247          C  0.2689200  0.9587600  0.5949000    0.00000       Uiso       1.00
      C248          C  0.2621700  0.9871600  0.5959800    0.00000       Uiso       1.00
      C249          C  0.2389800  0.9958200  0.6206800    0.00000       Uiso       1.00
      C250          C  0.2220900  0.9762800  0.6423200    0.00000       Uiso       1.00
      C251          C  0.2775700  0.0075300  0.5667199    0.00000       Uiso       1.00
      C252          C  0.1604000  0.6786200  0.7989300    0.00000       Uiso       1.00
      C253          C  0.1360600  0.8598199  0.7170500    0.00000       Uiso       1.00
      C254          C  0.9076699  0.8515900  0.7954200    0.00000       Uiso       1.00
      C255          C  0.9333600  0.6707100  0.7156900    0.00000       Uiso       1.00
      C256          C  0.6819400  0.0996600  0.7914700    0.00000       Uiso       1.00
      C257          C  0.8783000  0.8425300  0.7973000    0.00000       Uiso       1.00
      C258          C  0.8573399  0.8621500  0.8034199    0.00000       Uiso       1.00
      C259          C  0.8636999  0.8905399  0.8074400    0.00000       Uiso       1.00
      C260          C  0.8915499  0.8993300  0.8044500    0.00000       Uiso       1.00
      C261          C  0.9131800  0.8801900  0.7985100    0.00000       Uiso       1.00
      C262          C  0.9437600  0.6434000  0.7177300    0.00000       Uiso       1.00
      C263          C  0.9274600  0.6208900  0.7037200    0.00000       Uiso       1.00
      C264          C  0.9003800  0.6251200  0.6874900    0.00000       Uiso       1.00
      C265          C  0.8899000  0.6524000  0.6854399    0.00000       Uiso       1.00
      C266          C  0.9062300  0.6749300  0.6993300    0.00000       Uiso       1.00
      C267          C  0.1632700  0.8555999  0.7014300    0.00000       Uiso       1.00
      C268          C  0.1795400  0.8781000  0.6873900    0.00000       Uiso       1.00
      C269          C  0.1689000  0.9053299  0.6885599    0.00000       Uiso       1.00
      C270          C  0.1417600  0.9095600  0.7041600    0.00000       Uiso       1.00
      C271          C  0.1255400  0.8871000  0.7183000    0.00000       Uiso       1.00
      C272          C  0.1541900  0.6500900  0.8024400    0.00000       Uiso       1.00
      C273          C  0.1754400  0.6304700  0.8081900    0.00000       Uiso       1.00
      C274          C  0.2033600  0.6389900  0.8104200    0.00000       Uiso       1.00
      C275          C  0.2095900  0.6673600  0.8059800    0.00000       Uiso       1.00
      C276          C  0.1884000  0.6869400  0.8002999    0.00000       Uiso       1.00
      C277          C  0.8408999  0.9104000  0.8166600    0.00000       Uiso       1.00
      C278          C  0.2261700  0.6190500  0.8193499    0.00000       Uiso       1.00
      C279          C  0.5224200  0.2549800  0.7182200    0.00000       Uiso       1.00
      C280          C  0.5461000  0.2764600  0.7182800    0.00000       Uiso       1.00
      C281          C  0.5341600  0.2660000  0.7893299    0.00000       Uiso       1.00
      C282          C  0.5486200  0.2446200  0.8194799    0.00000       Uiso       1.00
      C283          C  0.4748200  0.2386200  0.6849900    0.00000       Uiso       1.00
      C284          C  0.4779000  0.2124500  0.7061700    0.00000       Uiso       1.00
      C285          C  0.4571900  0.1920500  0.7026300    0.00000       Uiso       1.00
      C286          C  0.4327200  0.1971200  0.6781800    0.00000       Uiso       1.00
      C287          C  0.4295400  0.2229900  0.6570100    0.00000       Uiso       1.00
      C288          C  0.4501600  0.2433000  0.6603400    0.00000       Uiso       1.00
      C289          C  0.4965900  0.2623800  0.6880000    0.00000       Uiso       1.00
      C290          C  0.3297500  0.0695600  0.6298500    0.00000       Uiso       1.00
       N13          N  0.3500800  0.0898000  0.6439900    0.00000       Uiso       1.00
      C291          C  0.4821300  0.2888000  0.7060100    0.00000       Uiso       1.00
      C292          C  0.4642200  0.2871300  0.7431800    0.00000       Uiso       1.00
      C293          C  0.4491600  0.3103100  0.7575400    0.00000       Uiso       1.00
      C294          C  0.4516500  0.3359600  0.7354000    0.00000       Uiso       1.00
      C295          C  0.4702200  0.3380600  0.6993600    0.00000       Uiso       1.00
      C296          C  0.4852300  0.3148500  0.6848400    0.00000       Uiso       1.00
      C297          C  0.5194700  0.2878100  0.8181900    0.00000       Uiso       1.00
       N14          N  0.3598900  0.4277000  0.8041900    0.00000       Uiso       1.00
      C298          C  0.3420500  0.4489000  0.8224100    0.00000       Uiso       1.00
      C299          C  0.5938600  0.2925600  0.6859100    0.00000       Uiso       1.00
      C300          C  0.6186500  0.2876300  0.6620600    0.00000       Uiso       1.00
      C301          C  0.6393800  0.3078400  0.6590400    0.00000       Uiso       1.00
      C302          C  0.6361300  0.3338600  0.6795900    0.00000       Uiso       1.00
      C303          C  0.6115400  0.3391800  0.7032500    0.00000       Uiso       1.00
      C304          C  0.5907499  0.3188700  0.7065800    0.00000       Uiso       1.00
      C305          C  0.5719200  0.2689500  0.6884699    0.00000       Uiso       1.00
      C306          C  0.7395300  0.4606700  0.6290900    0.00000       Uiso       1.00
       N15          N  0.7194600  0.4403900  0.6437400    0.00000       Uiso       1.00
      C307          C  0.5861599  0.2423800  0.7065600    0.00000       Uiso       1.00
      C308          C  0.5830600  0.2164500  0.6849800    0.00000       Uiso       1.00
      C309          C  0.5979000  0.1931100  0.6995699    0.00000       Uiso       1.00
      C310          C  0.6163400  0.1949500  0.7360600    0.00000       Uiso       1.00
      C311          C  0.6188900  0.2205000  0.7585500    0.00000       Uiso       1.00
      C312          C  0.6039500  0.2438100  0.7441500    0.00000       Uiso       1.00
       N16          N  0.7075900  0.1023500  0.8046800    0.00000       Uiso       1.00
      C313          C  0.7253500  0.0809100  0.8226399    0.00000       Uiso       1.00
       O13          O  0.5142500  0.2520700  0.7628000    0.00000       Uiso       1.00
       O14          O  0.5616500  0.2645500  0.6446700    0.00000       Uiso       1.00
       O15          O  0.5542700  0.2795100  0.7629400    0.00000       Uiso       1.00
       O16          O  0.5068700  0.2669300  0.6443999    0.00000       Uiso       1.00
      C314          C  0.3045300  0.0772600  0.6091100    0.00000       Uiso       1.00
      C315          C  0.2869300  0.0570100  0.5909200    0.00000       Uiso       1.00
      C316          C  0.2941000  0.0287400  0.5929500    0.00000       Uiso       1.00
      C317          C  0.3187100  0.0209600  0.6149900    0.00000       Uiso       1.00
      C318          C  0.3364300  0.0412400  0.6330000    0.00000       Uiso       1.00
      C319          C  0.7645599  0.4530300  0.6080700    0.00000       Uiso       1.00
      C320          C  0.7819499  0.4733300  0.5897000    0.00000       Uiso       1.00
      C321          C  0.7747200  0.5015900  0.5917900    0.00000       Uiso       1.00
      C322          C  0.7502300  0.5092900  0.6139100    0.00000       Uiso       1.00
      C323          C  0.7327500  0.4889700  0.6321500    0.00000       Uiso       1.00
      C324          C  0.7500800  0.0890800  0.8437300    0.00000       Uiso       1.00
      C325          C  0.7669200  0.0695900  0.8655100    0.00000       Uiso       1.00
      C326          C  0.7594399  0.0413800  0.8662100    0.00000       Uiso       1.00
      C327          C  0.7354900  0.0328300  0.8430000    0.00000       Uiso       1.00
      C328          C  0.7185400  0.0523800  0.8213199    0.00000       Uiso       1.00
      C329          C  0.3173100  0.4404500  0.8428400    0.00000       Uiso       1.00
      C330          C  0.3004300  0.4596400  0.8649900    0.00000       Uiso       1.00
      C331          C  0.3078600  0.4878500  0.8667200    0.00000       Uiso       1.00
      C332          C  0.3318000  0.4967200  0.8441300    0.00000       Uiso       1.00
      C333          C  0.3487999  0.4774600  0.8220700    0.00000       Uiso       1.00
      C334          C  0.2923799  0.5075600  0.8970000    0.00000       Uiso       1.00
      C335          C  0.7910700  0.5228699  0.5656600    0.00000       Uiso       1.00
      C336          C  0.4104900  0.1756700  0.6745099    0.00000       Uiso       1.00
      C337          C  0.4345400  0.3602600  0.7493300    0.00000       Uiso       1.00
      C338          C  0.6585000  0.3551300  0.6762100    0.00000       Uiso       1.00
      C339          C  0.6332999  0.1705100  0.7500100    0.00000       Uiso       1.00
      C340          C  0.3855300  0.4306000  0.7913900    0.00000       Uiso       1.00
      H133          H  0.8935200  0.5806700  0.6727600    0.00000       Uiso       1.00
      H134          H  0.7595800  0.0114200  0.9189700    0.00000       Uiso       1.00
      H135          H  0.7897599  0.0325400  0.9181300    0.00000       Uiso       1.00
      H136          H  0.6938800  0.3253100  0.6836799    0.00000       Uiso       1.00
      H137          H  0.7302899  0.3599000  0.6708500    0.00000       Uiso       1.00
      H138          H  0.6683200  0.4242700  0.6571500    0.00000       Uiso       1.00
      H139          H  0.6311499  0.3904900  0.6682100    0.00000       Uiso       1.00
      H140          H  0.6002300  0.1403600  0.7414200    0.00000       Uiso       1.00
      H141          H  0.6283200  0.1002700  0.7639700    0.00000       Uiso       1.00
      H142          H  0.6988100  0.1542400  0.7850300    0.00000       Uiso       1.00
      H143          H  0.6709500  0.1941900  0.7618700    0.00000       Uiso       1.00
      H144          H  0.3969500  0.3363500  0.7599000    0.00000       Uiso       1.00
      H145          H  0.3688799  0.3760000  0.7834000    0.00000       Uiso       1.00
      H146          H  0.4392300  0.4303800  0.7649900    0.00000       Uiso       1.00
      H147          H  0.4675200  0.3905900  0.7420500    0.00000       Uiso       1.00
      H148          H  0.4385200  0.1408400  0.6656300    0.00000       Uiso       1.00
      H149          H  0.4017100  0.1062600  0.6552300    0.00000       Uiso       1.00
      H150          H  0.3398900  0.1704400  0.6713300    0.00000       Uiso       1.00
      H151          H  0.3765500  0.2048700  0.6824800    0.00000       Uiso       1.00
      H152          H  0.7456300  0.4065200  0.6514900    0.00000       Uiso       1.00
      H153          H  0.3240900  0.1237700  0.6519500    0.00000       Uiso       1.00
      H154          H  0.1754700  0.9496700  0.6727499    0.00000       Uiso       1.00
      H155          H  0.0391100  0.7347500  0.7669200    0.00000       Uiso       1.00
      H156          H  0.0297400  0.7963100  0.7669899    0.00000       Uiso       1.00
      H157          H  0.0117600  0.7271200  0.6743700    0.00000       Uiso       1.00
      H158          H  0.0359300  0.7347999  0.6303800    0.00000       Uiso       1.00
      H159          H  0.0035800  0.7538199  0.6338600    0.00000       Uiso       1.00
      H160          H  0.0758600  0.7096600  0.7428300    0.00000       Uiso       1.00
      H161          H  0.1123700  0.6755400  0.7494500    0.00000       Uiso       1.00
      H162          H  0.1572800  0.7293700  0.8397800    0.00000       Uiso       1.00
      H163          H  0.1209100  0.7642500  0.8328700    0.00000       Uiso       1.00
      H164          H  0.1053100  0.7682300  0.7081000    0.00000       Uiso       1.00
      H165          H  0.1314900  0.8077999  0.6800300    0.00000       Uiso       1.00
      H166          H  0.1020300  0.8577800  0.7899300    0.00000       Uiso       1.00
      H167          H  0.0756800  0.8190600  0.8178500    0.00000       Uiso       1.00
      H168          H  0.0662700  0.7783800  0.6356500    0.00000       Uiso       1.00
      H169          H  0.0574700  0.8046100  0.6765100    0.00000       Uiso       1.00
      H170          H  0.0338900  0.7973199  0.6312100    0.00000       Uiso       1.00
      H171          H  0.9474099  0.7662100  0.8300700    0.00000       Uiso       1.00
      H172          H  0.9106900  0.8007600  0.8356900    0.00000       Uiso       1.00
      H173          H  0.9562600  0.8553200  0.7479799    0.00000       Uiso       1.00
      H174          H  0.9930699  0.8214800  0.7425600    0.00000       Uiso       1.00
      H175          H  0.9930300  0.7120800  0.8177300    0.00000       Uiso       1.00
      H176          H  0.9669899  0.6731500  0.7894800    0.00000       Uiso       1.00
      H177          H  0.9382500  0.7224700  0.6779300    0.00000       Uiso       1.00
      H178          H  0.9641400  0.7622400  0.7062800    0.00000       Uiso       1.00
      H179          H  0.0178900  0.7481200  0.8302000    0.00000       Uiso       1.00
      H180          H  0.0508500  0.7830700  0.8303900    0.00000       Uiso       1.00
      H181          H  0.2721300  0.6001000  0.8661699    0.00000       Uiso       1.00
      H182          H  0.3022300  0.5636300  0.8950800    0.00000       Uiso       1.00
      H183          H  0.2458200  0.5012400  0.8450200    0.00000       Uiso       1.00
      H184          H  0.2154000  0.5380700  0.8151800    0.00000       Uiso       1.00
      H185          H  0.7949399  0.9290400  0.8630900    0.00000       Uiso       1.00
      H186          H  0.7650099  0.9652299  0.8927400    0.00000       Uiso       1.00
      H187          H  0.8212799  0.0280500  0.8444700    0.00000       Uiso       1.00
      H188          H  0.8515799  0.9914900  0.8138700    0.00000       Uiso       1.00
      H189          H  0.8116700  0.6130400  0.6131100    0.00000       Uiso       1.00
      H190          H  0.7820200  0.5788700  0.5749500    0.00000       Uiso       1.00
      H191          H  0.8354600  0.5127700  0.6209600    0.00000       Uiso       1.00
      H192          H  0.8648300  0.5465800  0.6594900    0.00000       Uiso       1.00
      H193          H  0.2572700  0.9173800  0.6142900    0.00000       Uiso       1.00
      H194          H  0.2866900  0.9515499  0.5760500    0.00000       Uiso       1.00
      H195          H  0.2334200  0.0176300  0.6218800    0.00000       Uiso       1.00
      H196          H  0.2042800  0.9838300  0.6605200    0.00000       Uiso       1.00
      H197          H  0.2621800  0.0180000  0.5445300    0.00000       Uiso       1.00
      H198          H  0.2920300  0.9964100  0.5439399    0.00000       Uiso       1.00
      H199          H  0.6715000  0.0797900  0.7933800    0.00000       Uiso       1.00
      H200          H  0.8728399  0.8207900  0.7938499    0.00000       Uiso       1.00
      H201          H  0.8360099  0.8551000  0.8054600    0.00000       Uiso       1.00
      H202          H  0.8967299  0.9211600  0.8076200    0.00000       Uiso       1.00
      H203          H  0.9343399  0.8877900  0.7977600    0.00000       Uiso       1.00
      H204          H  0.9646500  0.6394400  0.7296799    0.00000       Uiso       1.00
      H205          H  0.9360899  0.6001100  0.7054300    0.00000       Uiso       1.00
      H206          H  0.8691000  0.6563600  0.6730700    0.00000       Uiso       1.00
      H207          H  0.8974500  0.6956500  0.6979399    0.00000       Uiso       1.00
      H208          H  0.1721600  0.8349100  0.7006900    0.00000       Uiso       1.00
      H209          H  0.2004000  0.8741400  0.6755800    0.00000       Uiso       1.00
      H210          H  0.1330200  0.9303100  0.7052400    0.00000       Uiso       1.00
      H211          H  0.1045900  0.8910499  0.7297100    0.00000       Uiso       1.00
      H212          H  0.1328500  0.6430000  0.8019600    0.00000       Uiso       1.00
      H213          H  0.1699500  0.6087400  0.8116699    0.00000       Uiso       1.00
      H214          H  0.2309300  0.6744600  0.8074800    0.00000       Uiso       1.00
      H215          H  0.1939600  0.7086599  0.7969500    0.00000       Uiso       1.00
      H216          H  0.8200799  0.9022000  0.8198900    0.00000       Uiso       1.00
      H217          H  0.2470500  0.6271600  0.8224000    0.00000       Uiso       1.00
      H218          H  0.5308900  0.2347600  0.7068400    0.00000       Uiso       1.00
      H219          H  0.5376300  0.2966600  0.7066200    0.00000       Uiso       1.00
      H220          H  0.5578700  0.2278600  0.7987300    0.00000       Uiso       1.00
      H221          H  0.5334799  0.2349600  0.8427700    0.00000       Uiso       1.00
      H222          H  0.5654300  0.2546600  0.8393300    0.00000       Uiso       1.00
      H223          H  0.4960000  0.2073300  0.7259400    0.00000       Uiso       1.00
      H224          H  0.4601400  0.1724100  0.7197500    0.00000       Uiso       1.00
      H225          H  0.4111100  0.2275000  0.6374000    0.00000       Uiso       1.00
      H226          H  0.4465500  0.2630600  0.6439199    0.00000       Uiso       1.00
      H227          H  0.4614100  0.2676100  0.7606700    0.00000       Uiso       1.00
      H228          H  0.4354800  0.3081100  0.7860300    0.00000       Uiso       1.00
      H229          H  0.4726000  0.3575200  0.6815100    0.00000       Uiso       1.00
      H230          H  0.4990700  0.3173800  0.6566700    0.00000       Uiso       1.00
      H231          H  0.5344800  0.2979600  0.8413700    0.00000       Uiso       1.00
      H232          H  0.5026399  0.2780300  0.8381200    0.00000       Uiso       1.00
      H233          H  0.5102100  0.3041600  0.7965100    0.00000       Uiso       1.00
      H234          H  0.6222500  0.2677700  0.6460200    0.00000       Uiso       1.00
      H235          H  0.6579099  0.3031200  0.6400700    0.00000       Uiso       1.00
      H236          H  0.6085500  0.3589400  0.7199500    0.00000       Uiso       1.00
      H237          H  0.5725499  0.3241700  0.7257300    0.00000       Uiso       1.00
      H238          H  0.5693499  0.2141200  0.6564100    0.00000       Uiso       1.00
      H239          H  0.5955200  0.1737500  0.6814100    0.00000       Uiso       1.00
      H240          H  0.6325300  0.2225200  0.7872999    0.00000       Uiso       1.00
      H241          H  0.6068300  0.2632400  0.7618900    0.00000       Uiso       1.00
      H242          H  0.5771700  0.2591300  0.6247300    0.00000       Uiso       1.00
      H243          H  0.4914000  0.2725500  0.6243100    0.00000       Uiso       1.00
      H244          H  0.2988800  0.0988500  0.6047800    0.00000       Uiso       1.00
      H245          H  0.2682100  0.0635500  0.5736400    0.00000       Uiso       1.00
      H246          H  0.3247700  0.9992800  0.6164899    0.00000       Uiso       1.00
      H247          H  0.3558400  0.0349100  0.6483800    0.00000       Uiso       1.00
      H248          H  0.7702400  0.4314600  0.6037199    0.00000       Uiso       1.00
      H249          H  0.8005600  0.4668500  0.5723100    0.00000       Uiso       1.00
      H250          H  0.7440799  0.5309500  0.6153600    0.00000       Uiso       1.00
      H251          H  0.7134500  0.4952400  0.6476899    0.00000       Uiso       1.00
      H252          H  0.7557700  0.1108700  0.8447500    0.00000       Uiso       1.00
      H253          H  0.7852899  0.0767100  0.8831699    0.00000       Uiso       1.00
      H254          H  0.7293900  0.0111500  0.8431600    0.00000       Uiso       1.00
      H255          H  0.7000799  0.0450000  0.8044200    0.00000       Uiso       1.00
      H256          H  0.3116500  0.4186400  0.8430900    0.00000       Uiso       1.00
      H257          H  0.2820500  0.4522900  0.8821300    0.00000       Uiso       1.00
      H258          H  0.3378600  0.5184100  0.8450600    0.00000       Uiso       1.00
      H259          H  0.3672599  0.4850800  0.8056900    0.00000       Uiso       1.00
      H260          H  0.3076300  0.5171800  0.9204100    0.00000       Uiso       1.00
      H261          H  0.2775300  0.4959800  0.9185100    0.00000       Uiso       1.00
      H262          H  0.7764700  0.5339700  0.5428800    0.00000       Uiso       1.00
      H263          H  0.8063700  0.5124500  0.5434700    0.00000       Uiso       1.00
      H264          H  0.3959000  0.4504900  0.7938499    0.00000       Uiso       1.00
