data_CCOF-MPC
_audit_creation_date              0000-00-00
_audit_creation_method            'LanYouShi'
_symmetry_space_group_name_H-M    'P1'
_cell_length_a                    15.4060001
_cell_length_b                    15.4060001
_cell_length_c                    8.3999996
_cell_angle_alpha                 90.0000000
_cell_angle_beta                  90.0000000
_cell_angle_gamma                 120.0000000
loop_
_atom_site_label
_atom_site_type_symbol
_atom_site_fract_x
_atom_site_fract_y
_atom_site_fract_z
_atom_site_U_iso_or_equiv
_atom_site_adp_type
_atom_site_occupancy
        C1          C  0.1183500  0.0468600 -0.0015900    0.00000       Uiso       1.00
        N1          N  0.0696700  0.1088800 -0.0365800    0.00000       Uiso       1.00
        N2          N  0.2313900  0.0955500 -0.0018300    0.00000       Uiso       1.00
        C2          C  0.2953600  0.2051300 -0.0422000    0.00000       Uiso       1.00
        C3          C  0.3805800  0.2489500  0.0811300    0.00000       Uiso       1.00
        N3          N  0.4440200  0.2019500  0.0456100    0.00000       Uiso       1.00
        C4          C  0.3935400  0.0921200  0.0016000    0.00000       Uiso       1.00
        C5          C  0.2815100  0.0370200  0.0488300    0.00000       Uiso       1.00
        C6          C  0.5569800  0.2658000  0.0432300    0.00000       Uiso       1.00
        N4          N  0.6211900  0.2188700  0.0105600    0.00000       Uiso       1.00
        H1          H  0.3275900  0.2139400 -0.1671800    0.00000       Uiso       1.00
        H2          H  0.2505000  0.2454800 -0.0332500    0.00000       Uiso       1.00
        H3          H  0.3484000  0.2281800  0.2065600    0.00000       Uiso       1.00
        H4          H  0.4256300  0.3339200  0.0677100    0.00000       Uiso       1.00
        C7          C  0.4464200  0.0433000  0.0882100    0.00000       Uiso       1.00
        H5          H  0.3993100  0.0845300 -0.1324300    0.00000       Uiso       1.00
        H6          H  0.2749100  0.0264800  0.1834900    0.00000       Uiso       1.00
        H7          H  0.2413900  0.9604300 -0.0112500    0.00000       Uiso       1.00
        H8          H  0.4965200  0.0320500  0.0007100    0.00000       Uiso       1.00
        H9          H  0.3878800  0.9676400  0.1385400    0.00000       Uiso       1.00
       H10          H  0.4940100  0.0940600  0.1894900    0.00000       Uiso       1.00
        C8          C  0.9531400  0.0714900 -0.0015900    0.00000       Uiso       1.00
        N5          N  0.8911200  0.9607900 -0.0365800    0.00000       Uiso       1.00
        N6          N  0.9044500  0.1358400 -0.0018300    0.00000       Uiso       1.00
        C9          C  0.7948700  0.0902300 -0.0422000    0.00000       Uiso       1.00
       C10          C  0.7510500  0.1316300  0.0811300    0.00000       Uiso       1.00
        N7          N  0.7980500  0.2420700  0.0456100    0.00000       Uiso       1.00
       C11          C  0.9078799  0.3014200  0.0016000    0.00000       Uiso       1.00
       C12          C  0.9629800  0.2444900  0.0488300    0.00000       Uiso       1.00
       C13          C  0.7342000  0.2911800  0.0432300    0.00000       Uiso       1.00
        N8          N  0.7811300  0.4023200  0.0105600    0.00000       Uiso       1.00
       H11          H  0.7860600  0.1136500 -0.1671800    0.00000       Uiso       1.00
       H12          H  0.7545200  0.0050200 -0.0332500    0.00000       Uiso       1.00
       H13          H  0.7718200  0.1202200  0.2065600    0.00000       Uiso       1.00
       H14          H  0.6660800  0.0917100  0.0677100    0.00000       Uiso       1.00
       C14          C  0.9567000  0.4031200  0.0882100    0.00000       Uiso       1.00
       H15          H  0.9154700  0.3147800 -0.1324300    0.00000       Uiso       1.00
       H16          H  0.9735200  0.2484300  0.1834900    0.00000       Uiso       1.00
       H17          H  0.0395700  0.2809600 -0.0112500    0.00000       Uiso       1.00
       H18          H  0.9679500  0.4644700  0.0007100    0.00000       Uiso       1.00
       H19          H  0.0323600  0.4202400  0.1385400    0.00000       Uiso       1.00
       H20          H  0.9059400  0.3999500  0.1894900    0.00000       Uiso       1.00
       C15          C  0.9285100  0.8816500 -0.0015900    0.00000       Uiso       1.00
        N9          N  0.0392100  0.9303300 -0.0365800    0.00000       Uiso       1.00
       N10          N  0.8641600  0.7686099 -0.0018300    0.00000       Uiso       1.00
       C16          C  0.9097700  0.7046400 -0.0422000    0.00000       Uiso       1.00
       C17          C  0.8683700  0.6194200  0.0811300    0.00000       Uiso       1.00
       N11          N  0.7579300  0.5559800  0.0456100    0.00000       Uiso       1.00
       C18          C  0.6985800  0.6064600  0.0016000    0.00000       Uiso       1.00
       C19          C  0.7555100  0.7184900  0.0488300    0.00000       Uiso       1.00
       C20          C  0.7088200  0.4430200  0.0432300    0.00000       Uiso       1.00
       N12          N  0.5976800  0.3788100  0.0105600    0.00000       Uiso       1.00
       H21          H  0.8863500  0.6724100 -0.1671800    0.00000       Uiso       1.00
       H22          H  0.9949800  0.7495000 -0.0332500    0.00000       Uiso       1.00
       H23          H  0.8797799  0.6516000  0.2065600    0.00000       Uiso       1.00
       H24          H  0.9082900  0.5743700  0.0677100    0.00000       Uiso       1.00
       C21          C  0.5968800  0.5535800  0.0882100    0.00000       Uiso       1.00
       H25          H  0.6852200  0.6006900 -0.1324300    0.00000       Uiso       1.00
       H26          H  0.7515700  0.7250900  0.1834900    0.00000       Uiso       1.00
       H27          H  0.7190400  0.7586100 -0.0112500    0.00000       Uiso       1.00
       H28          H  0.5355300  0.5034800  0.0007100    0.00000       Uiso       1.00
       H29          H  0.5797600  0.6121200  0.1385400    0.00000       Uiso       1.00
       H30          H  0.6000500  0.5059900  0.1894900    0.00000       Uiso       1.00
       C22          C  0.8816500  0.9531400  0.4984100    0.00000       Uiso       1.00
       N13          N  0.9303300  0.8911200  0.4634200    0.00000       Uiso       1.00
       N14          N  0.7686100  0.9044500  0.4981700    0.00000       Uiso       1.00
       C23          C  0.7046400  0.7948700  0.4578000    0.00000       Uiso       1.00
       C24          C  0.6194200  0.7510499  0.5811300    0.00000       Uiso       1.00
       N15          N  0.5559800  0.7980500  0.5456101    0.00000       Uiso       1.00
       C25          C  0.6064600  0.9078800  0.5016000    0.00000       Uiso       1.00
       C26          C  0.7184900  0.9629800  0.5488300    0.00000       Uiso       1.00
       C27          C  0.4430200  0.7341999  0.5432300    0.00000       Uiso       1.00
       N16          N  0.3788100  0.7811300  0.5105600    0.00000       Uiso       1.00
       H31          H  0.6724100  0.7860600  0.3328200    0.00000       Uiso       1.00
       H32          H  0.7495000  0.7545200  0.4667500    0.00000       Uiso       1.00
       H33          H  0.6516000  0.7718200  0.7065600    0.00000       Uiso       1.00
       H34          H  0.5743700  0.6660800  0.5677100    0.00000       Uiso       1.00
       C28          C  0.5535800  0.9567000  0.5882100    0.00000       Uiso       1.00
       H35          H  0.6006900  0.9154700  0.3675700    0.00000       Uiso       1.00
       H36          H  0.7250900  0.9735200  0.6834900    0.00000       Uiso       1.00
       H37          H  0.7586100  0.0395700  0.4887500    0.00000       Uiso       1.00
       H38          H  0.5034800  0.9679500  0.5007100    0.00000       Uiso       1.00
       H39          H  0.6121200  0.0323600  0.6385400    0.00000       Uiso       1.00
       H40          H  0.5059900  0.9059400  0.6894900    0.00000       Uiso       1.00
       C29          C  0.0468600  0.9285100  0.4984100    0.00000       Uiso       1.00
       N17          N  0.1088800  0.0392100  0.4634200    0.00000       Uiso       1.00
       N18          N  0.0955500  0.8641600  0.4981700    0.00000       Uiso       1.00
       C30          C  0.2051300  0.9097700  0.4578000    0.00000       Uiso       1.00
       C31          C  0.2489500  0.8683699  0.5811300    0.00000       Uiso       1.00
       N19          N  0.2019500  0.7579300  0.5456101    0.00000       Uiso       1.00
       C32          C  0.0921200  0.6985800  0.5016000    0.00000       Uiso       1.00
       C33          C  0.0370200  0.7555100  0.5488300    0.00000       Uiso       1.00
       C34          C  0.2658000  0.7088200  0.5432300    0.00000       Uiso       1.00
       N20          N  0.2188700  0.5976800  0.5105600    0.00000       Uiso       1.00
       H41          H  0.2139400  0.8863500  0.3328200    0.00000       Uiso       1.00
       H42          H  0.2454800  0.9949800  0.4667500    0.00000       Uiso       1.00
       H43          H  0.2281800  0.8797799  0.7065600    0.00000       Uiso       1.00
       H44          H  0.3339200  0.9082900  0.5677100    0.00000       Uiso       1.00
       C35          C  0.0433000  0.5968800  0.5882100    0.00000       Uiso       1.00
       H45          H  0.0845300  0.6852200  0.3675700    0.00000       Uiso       1.00
       H46          H  0.0264800  0.7515700  0.6834900    0.00000       Uiso       1.00
       H47          H  0.9604300  0.7190400  0.4887500    0.00000       Uiso       1.00
       H48          H  0.0320500  0.5355300  0.5007100    0.00000       Uiso       1.00
       H49          H  0.9676400  0.5797600  0.6385400    0.00000       Uiso       1.00
       H50          H  0.0940600  0.6000500  0.6894900    0.00000       Uiso       1.00
       C36          C  0.0714900  0.1183500  0.4984100    0.00000       Uiso       1.00
       N21          N  0.9607900  0.0696700  0.4634200    0.00000       Uiso       1.00
       N22          N  0.1358400  0.2313900  0.4981700    0.00000       Uiso       1.00
       C37          C  0.0902300  0.2953600  0.4578000    0.00000       Uiso       1.00
       C38          C  0.1316300  0.3805800  0.5811300    0.00000       Uiso       1.00
       N23          N  0.2420700  0.4440200  0.5456101    0.00000       Uiso       1.00
       C39          C  0.3014200  0.3935400  0.5016000    0.00000       Uiso       1.00
       C40          C  0.2444900  0.2815100  0.5488300    0.00000       Uiso       1.00
       C41          C  0.2911800  0.5569800  0.5432300    0.00000       Uiso       1.00
       N24          N  0.4023200  0.6211900  0.5105600    0.00000       Uiso       1.00
       H51          H  0.1136500  0.3275900  0.3328200    0.00000       Uiso       1.00
       H52          H  0.0050200  0.2505000  0.4667500    0.00000       Uiso       1.00
       H53          H  0.1202200  0.3484000  0.7065600    0.00000       Uiso       1.00
       H54          H  0.0917100  0.4256300  0.5677100    0.00000       Uiso       1.00
       C42          C  0.4031200  0.4464200  0.5882100    0.00000       Uiso       1.00
       H55          H  0.3147800  0.3993100  0.3675700    0.00000       Uiso       1.00
       H56          H  0.2484300  0.2749100  0.6834900    0.00000       Uiso       1.00
       H57          H  0.2809600  0.2413900  0.4887500    0.00000       Uiso       1.00
       H58          H  0.4644700  0.4965200  0.5007100    0.00000       Uiso       1.00
       H59          H  0.4202400  0.3878800  0.6385400    0.00000       Uiso       1.00
       H60          H  0.3999500  0.4940100  0.6894900    0.00000       Uiso       1.00
