data_COF-103
_audit_creation_date              0000-00-00
_audit_creation_method            'LanYouShi'
_symmetry_space_group_name_H-M    'P1'
_cell_length_a                    28.2476997
_cell_length_b                    28.2476997
_cell_length_c                    28.2476997
_cell_angle_alpha                 90.0000000
_cell_angle_beta                  90.0000000
_cell_angle_gamma                 90.0000000
loop_
_atom_site_label
_atom_site_type_symbol
_atom_site_fract_x
_atom_site_fract_y
_atom_site_fract_z
_atom_site_U_iso_or_equiv
_atom_site_adp_type
_atom_site_occupancy
        C1          C  0.3407000  0.0796600  0.2000100    0.00000       Uiso       1.00
        C2          C  0.3359100  0.0513900  0.2400700    0.00000       Uiso       1.00
        C3          C  0.3002100  0.0612500  0.2725300    0.00000       Uiso       1.00
        C4          C  0.2698900  0.0992100  0.2653300    0.00000       Uiso       1.00
        C5          C  0.2749600  0.1278800  0.2254900    0.00000       Uiso       1.00
        C6          C  0.3106200  0.1178300  0.1929000    0.00000       Uiso       1.00
        H1          H  0.3674800  0.0724200  0.1740700    0.00000       Uiso       1.00
        H2          H  0.2957500  0.0394900  0.3034500    0.00000       Uiso       1.00
        H3          H  0.2426300  0.1060700  0.2910000    0.00000       Uiso       1.00
        H4          H  0.3151700  0.1392000  0.1617100    0.00000       Uiso       1.00
        B1          B  0.2410200  0.1705200  0.2173100    0.00000       Uiso       1.00
        O1          O  0.2017300  0.1773800  0.2497900    0.00000       Uiso       1.00
        C7          C  0.8407000  0.5796600  0.7000100    0.00000       Uiso       1.00
        C8          C  0.8359100  0.5513900  0.7400700    0.00000       Uiso       1.00
        C9          C  0.8002100  0.5612500  0.7725300    0.00000       Uiso       1.00
       C10          C  0.7698900  0.5992100  0.7653300    0.00000       Uiso       1.00
       C11          C  0.7749600  0.6278800  0.7254900    0.00000       Uiso       1.00
       C12          C  0.8106200  0.6178300  0.6929001    0.00000       Uiso       1.00
        H5          H  0.8674800  0.5724200  0.6740701    0.00000       Uiso       1.00
        H6          H  0.7957500  0.5394900  0.8034500    0.00000       Uiso       1.00
        H7          H  0.7426300  0.6060700  0.7910000    0.00000       Uiso       1.00
        H8          H  0.8151699  0.6392000  0.6617100    0.00000       Uiso       1.00
        B2          B  0.7410200  0.6705200  0.7173100    0.00000       Uiso       1.00
        O2          O  0.7017300  0.6773800  0.7497900    0.00000       Uiso       1.00
       C13          C  0.1593000  0.9203400  0.7000100    0.00000       Uiso       1.00
       C14          C  0.1640900  0.9486100  0.7400700    0.00000       Uiso       1.00
       C15          C  0.1997900  0.9387500  0.7725300    0.00000       Uiso       1.00
       C16          C  0.2301100  0.9007900  0.7653300    0.00000       Uiso       1.00
       C17          C  0.2250400  0.8721200  0.7254900    0.00000       Uiso       1.00
       C18          C  0.1893800  0.8821700  0.6929001    0.00000       Uiso       1.00
        H9          H  0.1325200  0.9275800  0.6740701    0.00000       Uiso       1.00
       H10          H  0.2042500  0.9605100  0.8034500    0.00000       Uiso       1.00
       H11          H  0.2573700  0.8939300  0.7910000    0.00000       Uiso       1.00
       H12          H  0.1848300  0.8608000  0.6617100    0.00000       Uiso       1.00
        B3          B  0.2589800  0.8294800  0.7173100    0.00000       Uiso       1.00
        O3          O  0.2982700  0.8226200  0.7497900    0.00000       Uiso       1.00
       C19          C  0.6593000  0.4203400  0.2000100    0.00000       Uiso       1.00
       C20          C  0.6640900  0.4486100  0.2400700    0.00000       Uiso       1.00
       C21          C  0.6997900  0.4387500  0.2725300    0.00000       Uiso       1.00
       C22          C  0.7301100  0.4007900  0.2653300    0.00000       Uiso       1.00
       C23          C  0.7250400  0.3721200  0.2254900    0.00000       Uiso       1.00
       C24          C  0.6893800  0.3821700  0.1929000    0.00000       Uiso       1.00
       H13          H  0.6325200  0.4275800  0.1740700    0.00000       Uiso       1.00
       H14          H  0.7042500  0.4605100  0.3034500    0.00000       Uiso       1.00
       H15          H  0.7573700  0.3939300  0.2910000    0.00000       Uiso       1.00
       H16          H  0.6848301  0.3608000  0.1617100    0.00000       Uiso       1.00
        B4          B  0.7589800  0.3294800  0.2173100    0.00000       Uiso       1.00
        O4          O  0.7982700  0.3226200  0.2497900    0.00000       Uiso       1.00
       C25          C  0.6593000  0.5796600  0.2999900    0.00000       Uiso       1.00
       C26          C  0.6640900  0.5513900  0.2599300    0.00000       Uiso       1.00
       C27          C  0.6997900  0.5612500  0.2274700    0.00000       Uiso       1.00
       C28          C  0.7301100  0.5992100  0.2346700    0.00000       Uiso       1.00
       C29          C  0.7250400  0.6278800  0.2745100    0.00000       Uiso       1.00
       C30          C  0.6893800  0.6178300  0.3071000    0.00000       Uiso       1.00
       H17          H  0.6325200  0.5724200  0.3259300    0.00000       Uiso       1.00
       H18          H  0.7042500  0.5394900  0.1965500    0.00000       Uiso       1.00
       H19          H  0.7573700  0.6060700  0.2090000    0.00000       Uiso       1.00
       H20          H  0.6848301  0.6392000  0.3382900    0.00000       Uiso       1.00
        B5          B  0.7589800  0.6705200  0.2826900    0.00000       Uiso       1.00
        O5          O  0.7982700  0.6773800  0.2502100    0.00000       Uiso       1.00
       C31          C  0.1593000  0.0796600  0.7999900    0.00000       Uiso       1.00
       C32          C  0.1640900  0.0513900  0.7599300    0.00000       Uiso       1.00
       C33          C  0.1997900  0.0612500  0.7274700    0.00000       Uiso       1.00
       C34          C  0.2301100  0.0992100  0.7346700    0.00000       Uiso       1.00
       C35          C  0.2250400  0.1278800  0.7745100    0.00000       Uiso       1.00
       C36          C  0.1893800  0.1178300  0.8070999    0.00000       Uiso       1.00
       H21          H  0.1325200  0.0724200  0.8259299    0.00000       Uiso       1.00
       H22          H  0.2042500  0.0394900  0.6965500    0.00000       Uiso       1.00
       H23          H  0.2573700  0.1060700  0.7090000    0.00000       Uiso       1.00
       H24          H  0.1848300  0.1392000  0.8382900    0.00000       Uiso       1.00
        B6          B  0.2589800  0.1705200  0.7826900    0.00000       Uiso       1.00
        O6          O  0.2982700  0.1773800  0.7502100    0.00000       Uiso       1.00
       C37          C  0.8407000  0.4203400  0.7999900    0.00000       Uiso       1.00
       C38          C  0.8359100  0.4486100  0.7599300    0.00000       Uiso       1.00
       C39          C  0.8002100  0.4387500  0.7274700    0.00000       Uiso       1.00
       C40          C  0.7698900  0.4007900  0.7346700    0.00000       Uiso       1.00
       C41          C  0.7749600  0.3721200  0.7745100    0.00000       Uiso       1.00
       C42          C  0.8106200  0.3821700  0.8070999    0.00000       Uiso       1.00
       H25          H  0.8674800  0.4275800  0.8259299    0.00000       Uiso       1.00
       H26          H  0.7957500  0.4605100  0.6965500    0.00000       Uiso       1.00
       H27          H  0.7426300  0.3939300  0.7090000    0.00000       Uiso       1.00
       H28          H  0.8151699  0.3608000  0.8382900    0.00000       Uiso       1.00
        B7          B  0.7410200  0.3294800  0.7826900    0.00000       Uiso       1.00
        O7          O  0.7017300  0.3226200  0.7502100    0.00000       Uiso       1.00
       C43          C  0.3407000  0.9203400  0.2999900    0.00000       Uiso       1.00
       C44          C  0.3359100  0.9486100  0.2599300    0.00000       Uiso       1.00
       C45          C  0.3002100  0.9387500  0.2274700    0.00000       Uiso       1.00
       C46          C  0.2698900  0.9007900  0.2346700    0.00000       Uiso       1.00
       C47          C  0.2749600  0.8721200  0.2745100    0.00000       Uiso       1.00
       C48          C  0.3106200  0.8821700  0.3071000    0.00000       Uiso       1.00
       H29          H  0.3674800  0.9275800  0.3259300    0.00000       Uiso       1.00
       H30          H  0.2957500  0.9605100  0.1965500    0.00000       Uiso       1.00
       H31          H  0.2426300  0.8939300  0.2090000    0.00000       Uiso       1.00
       H32          H  0.3151700  0.8608000  0.3382900    0.00000       Uiso       1.00
        B8          B  0.2410200  0.8294800  0.2826900    0.00000       Uiso       1.00
        O8          O  0.2017300  0.8226200  0.2502100    0.00000       Uiso       1.00
       C49          C  0.2000100  0.3407000  0.0796600    0.00000       Uiso       1.00
       C50          C  0.2400700  0.3359100  0.0513900    0.00000       Uiso       1.00
       C51          C  0.2725300  0.3002100  0.0612500    0.00000       Uiso       1.00
       C52          C  0.2653300  0.2698900  0.0992100    0.00000       Uiso       1.00
       C53          C  0.2254900  0.2749600  0.1278800    0.00000       Uiso       1.00
       C54          C  0.1929000  0.3106200  0.1178300    0.00000       Uiso       1.00
       H33          H  0.1740700  0.3674800  0.0724200    0.00000       Uiso       1.00
       H34          H  0.3034500  0.2957500  0.0394900    0.00000       Uiso       1.00
       H35          H  0.2910000  0.2426300  0.1060700    0.00000       Uiso       1.00
       H36          H  0.1617100  0.3151700  0.1392000    0.00000       Uiso       1.00
        B9          B  0.2173100  0.2410200  0.1705200    0.00000       Uiso       1.00
        O9          O  0.2497900  0.2017300  0.1773800    0.00000       Uiso       1.00
       C55          C  0.7000100  0.8407000  0.5796600    0.00000       Uiso       1.00
       C56          C  0.7400700  0.8359100  0.5513900    0.00000       Uiso       1.00
       C57          C  0.7725300  0.8002100  0.5612500    0.00000       Uiso       1.00
       C58          C  0.7653300  0.7698900  0.5992100    0.00000       Uiso       1.00
       C59          C  0.7254900  0.7749600  0.6278800    0.00000       Uiso       1.00
       C60          C  0.6929001  0.8106200  0.6178300    0.00000       Uiso       1.00
       H37          H  0.6740701  0.8674800  0.5724200    0.00000       Uiso       1.00
       H38          H  0.8034500  0.7957500  0.5394900    0.00000       Uiso       1.00
       H39          H  0.7910000  0.7426300  0.6060700    0.00000       Uiso       1.00
       H40          H  0.6617100  0.8151699  0.6392000    0.00000       Uiso       1.00
       B10          B  0.7173100  0.7410200  0.6705200    0.00000       Uiso       1.00
       O10          O  0.7497900  0.7017300  0.6773800    0.00000       Uiso       1.00
       C61          C  0.7000100  0.1593000  0.9203400    0.00000       Uiso       1.00
       C62          C  0.7400700  0.1640900  0.9486100    0.00000       Uiso       1.00
       C63          C  0.7725300  0.1997900  0.9387500    0.00000       Uiso       1.00
       C64          C  0.7653300  0.2301100  0.9007900    0.00000       Uiso       1.00
       C65          C  0.7254900  0.2250400  0.8721200    0.00000       Uiso       1.00
       C66          C  0.6929001  0.1893800  0.8821700    0.00000       Uiso       1.00
       H41          H  0.6740701  0.1325200  0.9275800    0.00000       Uiso       1.00
       H42          H  0.8034500  0.2042500  0.9605100    0.00000       Uiso       1.00
       H43          H  0.7910000  0.2573700  0.8939300    0.00000       Uiso       1.00
       H44          H  0.6617100  0.1848300  0.8608000    0.00000       Uiso       1.00
       B11          B  0.7173100  0.2589800  0.8294800    0.00000       Uiso       1.00
       O11          O  0.7497900  0.2982700  0.8226200    0.00000       Uiso       1.00
       C67          C  0.2000100  0.6593000  0.4203400    0.00000       Uiso       1.00
       C68          C  0.2400700  0.6640900  0.4486100    0.00000       Uiso       1.00
       C69          C  0.2725300  0.6997900  0.4387500    0.00000       Uiso       1.00
       C70          C  0.2653300  0.7301100  0.4007900    0.00000       Uiso       1.00
       C71          C  0.2254900  0.7250400  0.3721200    0.00000       Uiso       1.00
       C72          C  0.1929000  0.6893800  0.3821700    0.00000       Uiso       1.00
       H45          H  0.1740700  0.6325200  0.4275800    0.00000       Uiso       1.00
       H46          H  0.3034500  0.7042500  0.4605100    0.00000       Uiso       1.00
       H47          H  0.2910000  0.7573700  0.3939300    0.00000       Uiso       1.00
       H48          H  0.1617100  0.6848301  0.3608000    0.00000       Uiso       1.00
       B12          B  0.2173100  0.7589800  0.3294800    0.00000       Uiso       1.00
       O12          O  0.2497900  0.7982700  0.3226200    0.00000       Uiso       1.00
       C73          C  0.2999900  0.6593000  0.5796600    0.00000       Uiso       1.00
       C74          C  0.2599300  0.6640900  0.5513900    0.00000       Uiso       1.00
       C75          C  0.2274700  0.6997900  0.5612500    0.00000       Uiso       1.00
       C76          C  0.2346700  0.7301100  0.5992100    0.00000       Uiso       1.00
       C77          C  0.2745100  0.7250400  0.6278800    0.00000       Uiso       1.00
       C78          C  0.3071000  0.6893800  0.6178300    0.00000       Uiso       1.00
       H49          H  0.3259300  0.6325200  0.5724200    0.00000       Uiso       1.00
       H50          H  0.1965500  0.7042500  0.5394900    0.00000       Uiso       1.00
       H51          H  0.2090000  0.7573700  0.6060700    0.00000       Uiso       1.00
       H52          H  0.3382900  0.6848301  0.6392000    0.00000       Uiso       1.00
       B13          B  0.2826900  0.7589800  0.6705200    0.00000       Uiso       1.00
       O13          O  0.2502100  0.7982700  0.6773800    0.00000       Uiso       1.00
       C79          C  0.7999900  0.1593000  0.0796600    0.00000       Uiso       1.00
       C80          C  0.7599300  0.1640900  0.0513900    0.00000       Uiso       1.00
       C81          C  0.7274700  0.1997900  0.0612500    0.00000       Uiso       1.00
       C82          C  0.7346700  0.2301100  0.0992100    0.00000       Uiso       1.00
       C83          C  0.7745100  0.2250400  0.1278800    0.00000       Uiso       1.00
       C84          C  0.8070999  0.1893800  0.1178300    0.00000       Uiso       1.00
       H53          H  0.8259299  0.1325200  0.0724200    0.00000       Uiso       1.00
       H54          H  0.6965500  0.2042500  0.0394900    0.00000       Uiso       1.00
       H55          H  0.7090000  0.2573700  0.1060700    0.00000       Uiso       1.00
       H56          H  0.8382900  0.1848300  0.1392000    0.00000       Uiso       1.00
       B14          B  0.7826900  0.2589800  0.1705200    0.00000       Uiso       1.00
       O14          O  0.7502100  0.2982700  0.1773800    0.00000       Uiso       1.00
       C85          C  0.7999900  0.8407000  0.4203400    0.00000       Uiso       1.00
       C86          C  0.7599300  0.8359100  0.4486100    0.00000       Uiso       1.00
       C87          C  0.7274700  0.8002100  0.4387500    0.00000       Uiso       1.00
       C88          C  0.7346700  0.7698900  0.4007900    0.00000       Uiso       1.00
       C89          C  0.7745100  0.7749600  0.3721200    0.00000       Uiso       1.00
       C90          C  0.8070999  0.8106200  0.3821700    0.00000       Uiso       1.00
       H57          H  0.8259299  0.8674800  0.4275800    0.00000       Uiso       1.00
       H58          H  0.6965500  0.7957500  0.4605100    0.00000       Uiso       1.00
       H59          H  0.7090000  0.7426300  0.3939300    0.00000       Uiso       1.00
       H60          H  0.8382900  0.8151699  0.3608000    0.00000       Uiso       1.00
       B15          B  0.7826900  0.7410200  0.3294800    0.00000       Uiso       1.00
       O15          O  0.7502100  0.7017300  0.3226200    0.00000       Uiso       1.00
       C91          C  0.2999900  0.3407000  0.9203400    0.00000       Uiso       1.00
       C92          C  0.2599300  0.3359100  0.9486100    0.00000       Uiso       1.00
       C93          C  0.2274700  0.3002100  0.9387500    0.00000       Uiso       1.00
       C94          C  0.2346700  0.2698900  0.9007900    0.00000       Uiso       1.00
       C95          C  0.2745100  0.2749600  0.8721200    0.00000       Uiso       1.00
       C96          C  0.3071000  0.3106200  0.8821700    0.00000       Uiso       1.00
       H61          H  0.3259300  0.3674800  0.9275800    0.00000       Uiso       1.00
       H62          H  0.1965500  0.2957500  0.9605100    0.00000       Uiso       1.00
       H63          H  0.2090000  0.2426300  0.8939300    0.00000       Uiso       1.00
       H64          H  0.3382900  0.3151700  0.8608000    0.00000       Uiso       1.00
       B16          B  0.2826900  0.2410200  0.8294800    0.00000       Uiso       1.00
       O16          O  0.2502100  0.2017300  0.8226200    0.00000       Uiso       1.00
       C97          C  0.0796600  0.2000100  0.3407000    0.00000       Uiso       1.00
       C98          C  0.0513900  0.2400700  0.3359100    0.00000       Uiso       1.00
       C99          C  0.0612500  0.2725300  0.3002100    0.00000       Uiso       1.00
      C100          C  0.0992100  0.2653300  0.2698900    0.00000       Uiso       1.00
      C101          C  0.1278800  0.2254900  0.2749600    0.00000       Uiso       1.00
      C102          C  0.1178300  0.1929000  0.3106200    0.00000       Uiso       1.00
       H65          H  0.0724200  0.1740700  0.3674800    0.00000       Uiso       1.00
       H66          H  0.0394900  0.3034500  0.2957500    0.00000       Uiso       1.00
       H67          H  0.1060700  0.2910000  0.2426300    0.00000       Uiso       1.00
       H68          H  0.1392000  0.1617100  0.3151700    0.00000       Uiso       1.00
       B17          B  0.1705200  0.2173100  0.2410200    0.00000       Uiso       1.00
       O17          O  0.1773800  0.2497900  0.2017300    0.00000       Uiso       1.00
      C103          C  0.5796600  0.7000100  0.8407000    0.00000       Uiso       1.00
      C104          C  0.5513900  0.7400700  0.8359100    0.00000       Uiso       1.00
      C105          C  0.5612500  0.7725300  0.8002100    0.00000       Uiso       1.00
      C106          C  0.5992100  0.7653300  0.7698900    0.00000       Uiso       1.00
      C107          C  0.6278800  0.7254900  0.7749600    0.00000       Uiso       1.00
      C108          C  0.6178300  0.6929001  0.8106200    0.00000       Uiso       1.00
       H69          H  0.5724200  0.6740701  0.8674800    0.00000       Uiso       1.00
       H70          H  0.5394900  0.8034500  0.7957500    0.00000       Uiso       1.00
       H71          H  0.6060700  0.7910000  0.7426300    0.00000       Uiso       1.00
       H72          H  0.6392000  0.6617100  0.8151699    0.00000       Uiso       1.00
       B18          B  0.6705200  0.7173100  0.7410200    0.00000       Uiso       1.00
       O18          O  0.6773800  0.7497900  0.7017300    0.00000       Uiso       1.00
      C109          C  0.9203400  0.7000100  0.1593000    0.00000       Uiso       1.00
      C110          C  0.9486100  0.7400700  0.1640900    0.00000       Uiso       1.00
      C111          C  0.9387500  0.7725300  0.1997900    0.00000       Uiso       1.00
      C112          C  0.9007900  0.7653300  0.2301100    0.00000       Uiso       1.00
      C113          C  0.8721200  0.7254900  0.2250400    0.00000       Uiso       1.00
      C114          C  0.8821700  0.6929001  0.1893800    0.00000       Uiso       1.00
       H73          H  0.9275800  0.6740701  0.1325200    0.00000       Uiso       1.00
       H74          H  0.9605100  0.8034500  0.2042500    0.00000       Uiso       1.00
       H75          H  0.8939300  0.7910000  0.2573700    0.00000       Uiso       1.00
       H76          H  0.8608000  0.6617100  0.1848300    0.00000       Uiso       1.00
       B19          B  0.8294800  0.7173100  0.2589800    0.00000       Uiso       1.00
       O19          O  0.8226200  0.7497900  0.2982700    0.00000       Uiso       1.00
      C115          C  0.4203400  0.2000100  0.6593000    0.00000       Uiso       1.00
      C116          C  0.4486100  0.2400700  0.6640900    0.00000       Uiso       1.00
      C117          C  0.4387500  0.2725300  0.6997900    0.00000       Uiso       1.00
      C118          C  0.4007900  0.2653300  0.7301100    0.00000       Uiso       1.00
      C119          C  0.3721200  0.2254900  0.7250400    0.00000       Uiso       1.00
      C120          C  0.3821700  0.1929000  0.6893800    0.00000       Uiso       1.00
       H77          H  0.4275800  0.1740700  0.6325200    0.00000       Uiso       1.00
       H78          H  0.4605100  0.3034500  0.7042500    0.00000       Uiso       1.00
       H79          H  0.3939300  0.2910000  0.7573700    0.00000       Uiso       1.00
       H80          H  0.3608000  0.1617100  0.6848301    0.00000       Uiso       1.00
       B20          B  0.3294800  0.2173100  0.7589800    0.00000       Uiso       1.00
       O20          O  0.3226200  0.2497900  0.7982700    0.00000       Uiso       1.00
      C121          C  0.5796600  0.2999900  0.6593000    0.00000       Uiso       1.00
      C122          C  0.5513900  0.2599300  0.6640900    0.00000       Uiso       1.00
      C123          C  0.5612500  0.2274700  0.6997900    0.00000       Uiso       1.00
      C124          C  0.5992100  0.2346700  0.7301100    0.00000       Uiso       1.00
      C125          C  0.6278800  0.2745100  0.7250400    0.00000       Uiso       1.00
      C126          C  0.6178300  0.3071000  0.6893800    0.00000       Uiso       1.00
       H81          H  0.5724200  0.3259300  0.6325200    0.00000       Uiso       1.00
       H82          H  0.5394900  0.1965500  0.7042500    0.00000       Uiso       1.00
       H83          H  0.6060700  0.2090000  0.7573700    0.00000       Uiso       1.00
       H84          H  0.6392000  0.3382900  0.6848301    0.00000       Uiso       1.00
       B21          B  0.6705200  0.2826900  0.7589800    0.00000       Uiso       1.00
       O21          O  0.6773800  0.2502100  0.7982700    0.00000       Uiso       1.00
      C127          C  0.0796600  0.7999900  0.1593000    0.00000       Uiso       1.00
      C128          C  0.0513900  0.7599300  0.1640900    0.00000       Uiso       1.00
      C129          C  0.0612500  0.7274700  0.1997900    0.00000       Uiso       1.00
      C130          C  0.0992100  0.7346700  0.2301100    0.00000       Uiso       1.00
      C131          C  0.1278800  0.7745100  0.2250400    0.00000       Uiso       1.00
      C132          C  0.1178300  0.8070999  0.1893800    0.00000       Uiso       1.00
       H85          H  0.0724200  0.8259299  0.1325200    0.00000       Uiso       1.00
       H86          H  0.0394900  0.6965500  0.2042500    0.00000       Uiso       1.00
       H87          H  0.1060700  0.7090000  0.2573700    0.00000       Uiso       1.00
       H88          H  0.1392000  0.8382900  0.1848300    0.00000       Uiso       1.00
       B22          B  0.1705200  0.7826900  0.2589800    0.00000       Uiso       1.00
       O22          O  0.1773800  0.7502100  0.2982700    0.00000       Uiso       1.00
      C133          C  0.4203400  0.7999900  0.8407000    0.00000       Uiso       1.00
      C134          C  0.4486100  0.7599300  0.8359100    0.00000       Uiso       1.00
      C135          C  0.4387500  0.7274700  0.8002100    0.00000       Uiso       1.00
      C136          C  0.4007900  0.7346700  0.7698900    0.00000       Uiso       1.00
      C137          C  0.3721200  0.7745100  0.7749600    0.00000       Uiso       1.00
      C138          C  0.3821700  0.8070999  0.8106200    0.00000       Uiso       1.00
       H89          H  0.4275800  0.8259299  0.8674800    0.00000       Uiso       1.00
       H90          H  0.4605100  0.6965500  0.7957500    0.00000       Uiso       1.00
       H91          H  0.3939300  0.7090000  0.7426300    0.00000       Uiso       1.00
       H92          H  0.3608000  0.8382900  0.8151699    0.00000       Uiso       1.00
       B23          B  0.3294800  0.7826900  0.7410200    0.00000       Uiso       1.00
       O23          O  0.3226200  0.7502100  0.7017300    0.00000       Uiso       1.00
      C139          C  0.9203400  0.2999900  0.3407000    0.00000       Uiso       1.00
      C140          C  0.9486100  0.2599300  0.3359100    0.00000       Uiso       1.00
      C141          C  0.9387500  0.2274700  0.3002100    0.00000       Uiso       1.00
      C142          C  0.9007900  0.2346700  0.2698900    0.00000       Uiso       1.00
      C143          C  0.8721200  0.2745100  0.2749600    0.00000       Uiso       1.00
      C144          C  0.8821700  0.3071000  0.3106200    0.00000       Uiso       1.00
       H93          H  0.9275800  0.3259300  0.3674800    0.00000       Uiso       1.00
       H94          H  0.9605100  0.1965500  0.2957500    0.00000       Uiso       1.00
       H95          H  0.8939300  0.2090000  0.2426300    0.00000       Uiso       1.00
       H96          H  0.8608000  0.3382900  0.3151700    0.00000       Uiso       1.00
       B24          B  0.8294800  0.2826900  0.2410200    0.00000       Uiso       1.00
       O24          O  0.8226200  0.2502100  0.2017300    0.00000       Uiso       1.00
      C145          C  0.3296600  0.5907000  0.4500100    0.00000       Uiso       1.00
      C146          C  0.3013900  0.5859100  0.4900700    0.00000       Uiso       1.00
      C147          C  0.3112500  0.5502100  0.5225300    0.00000       Uiso       1.00
      C148          C  0.3492100  0.5198900  0.5153300    0.00000       Uiso       1.00
      C149          C  0.3778800  0.5249600  0.4754900    0.00000       Uiso       1.00
      C150          C  0.3678300  0.5606200  0.4429000    0.00000       Uiso       1.00
       H97          H  0.3224200  0.6174800  0.4240700    0.00000       Uiso       1.00
       H98          H  0.2894900  0.5457500  0.5534500    0.00000       Uiso       1.00
       H99          H  0.3560700  0.4926300  0.5410000    0.00000       Uiso       1.00
      H100          H  0.3892000  0.5651700  0.4117100    0.00000       Uiso       1.00
       B25          B  0.4205200  0.4910200  0.4673100    0.00000       Uiso       1.00
       O25          O  0.4273800  0.4517300  0.4997900    0.00000       Uiso       1.00
      C151          C  0.8296601  0.0907000  0.9500100    0.00000       Uiso       1.00
      C152          C  0.8013900  0.0859100  0.9900700    0.00000       Uiso       1.00
      C153          C  0.8112500  0.0502100  0.0225300    0.00000       Uiso       1.00
      C154          C  0.8492100  0.0198900  0.0153300    0.00000       Uiso       1.00
      C155          C  0.8778800  0.0249600  0.9754900    0.00000       Uiso       1.00
      C156          C  0.8678300  0.0606200  0.9429000    0.00000       Uiso       1.00
      H101          H  0.8224200  0.1174800  0.9240700    0.00000       Uiso       1.00
      H102          H  0.7894900  0.0457500  0.0534500    0.00000       Uiso       1.00
      H103          H  0.8560700  0.9926300  0.0410000    0.00000       Uiso       1.00
      H104          H  0.8892000  0.0651700  0.9117100    0.00000       Uiso       1.00
       B26          B  0.9205200  0.9910200  0.9673100    0.00000       Uiso       1.00
       O26          O  0.9273800  0.9517300  0.9997900    0.00000       Uiso       1.00
      C157          C  0.1703400  0.4093000  0.9500100    0.00000       Uiso       1.00
      C158          C  0.1986100  0.4140900  0.9900700    0.00000       Uiso       1.00
      C159          C  0.1887500  0.4497900  0.0225300    0.00000       Uiso       1.00
      C160          C  0.1507900  0.4801100  0.0153300    0.00000       Uiso       1.00
      C161          C  0.1221200  0.4750400  0.9754900    0.00000       Uiso       1.00
      C162          C  0.1321700  0.4393800  0.9429000    0.00000       Uiso       1.00
      H105          H  0.1775800  0.3825200  0.9240700    0.00000       Uiso       1.00
      H106          H  0.2105100  0.4542500  0.0534500    0.00000       Uiso       1.00
      H107          H  0.1439300  0.5073700  0.0410000    0.00000       Uiso       1.00
      H108          H  0.1108000  0.4348300  0.9117100    0.00000       Uiso       1.00
       B27          B  0.0794800  0.5089800  0.9673100    0.00000       Uiso       1.00
       O27          O  0.0726200  0.5482700  0.9997900    0.00000       Uiso       1.00
      C163          C  0.6703399  0.9093000  0.4500100    0.00000       Uiso       1.00
      C164          C  0.6986100  0.9140900  0.4900700    0.00000       Uiso       1.00
      C165          C  0.6887500  0.9497900  0.5225300    0.00000       Uiso       1.00
      C166          C  0.6507900  0.9801100  0.5153300    0.00000       Uiso       1.00
      C167          C  0.6221200  0.9750400  0.4754900    0.00000       Uiso       1.00
      C168          C  0.6321700  0.9393800  0.4429000    0.00000       Uiso       1.00
      H109          H  0.6775800  0.8825200  0.4240700    0.00000       Uiso       1.00
      H110          H  0.7105100  0.9542500  0.5534500    0.00000       Uiso       1.00
      H111          H  0.6439300  0.0073700  0.5410000    0.00000       Uiso       1.00
      H112          H  0.6108000  0.9348300  0.4117100    0.00000       Uiso       1.00
       B28          B  0.5794800  0.0089800  0.4673100    0.00000       Uiso       1.00
       O28          O  0.5726200  0.0482700  0.4997900    0.00000       Uiso       1.00
      C169          C  0.8296601  0.9093000  0.5499900    0.00000       Uiso       1.00
      C170          C  0.8013900  0.9140900  0.5099300    0.00000       Uiso       1.00
      C171          C  0.8112500  0.9497900  0.4774700    0.00000       Uiso       1.00
      C172          C  0.8492100  0.9801100  0.4846700    0.00000       Uiso       1.00
      C173          C  0.8778800  0.9750400  0.5245100    0.00000       Uiso       1.00
      C174          C  0.8678300  0.9393800  0.5571000    0.00000       Uiso       1.00
      H113          H  0.8224200  0.8825200  0.5759300    0.00000       Uiso       1.00
      H114          H  0.7894900  0.9542500  0.4465500    0.00000       Uiso       1.00
      H115          H  0.8560700  0.0073700  0.4590000    0.00000       Uiso       1.00
      H116          H  0.8892000  0.9348300  0.5882900    0.00000       Uiso       1.00
       B29          B  0.9205200  0.0089800  0.5326900    0.00000       Uiso       1.00
       O29          O  0.9273800  0.0482700  0.5002100    0.00000       Uiso       1.00
      C175          C  0.3296600  0.4093000  0.0499900    0.00000       Uiso       1.00
      C176          C  0.3013900  0.4140900  0.0099300    0.00000       Uiso       1.00
      C177          C  0.3112500  0.4497900  0.9774700    0.00000       Uiso       1.00
      C178          C  0.3492100  0.4801100  0.9846700    0.00000       Uiso       1.00
      C179          C  0.3778800  0.4750400  0.0245100    0.00000       Uiso       1.00
      C180          C  0.3678300  0.4393800  0.0571000    0.00000       Uiso       1.00
      H117          H  0.3224200  0.3825200  0.0759300    0.00000       Uiso       1.00
      H118          H  0.2894900  0.4542500  0.9465500    0.00000       Uiso       1.00
      H119          H  0.3560700  0.5073700  0.9590000    0.00000       Uiso       1.00
      H120          H  0.3892000  0.4348300  0.0882900    0.00000       Uiso       1.00
       B30          B  0.4205200  0.5089800  0.0326900    0.00000       Uiso       1.00
       O30          O  0.4273800  0.5482700  0.0002100    0.00000       Uiso       1.00
      C181          C  0.6703399  0.0907000  0.0499900    0.00000       Uiso       1.00
      C182          C  0.6986100  0.0859100  0.0099300    0.00000       Uiso       1.00
      C183          C  0.6887500  0.0502100  0.9774700    0.00000       Uiso       1.00
      C184          C  0.6507900  0.0198900  0.9846700    0.00000       Uiso       1.00
      C185          C  0.6221200  0.0249600  0.0245100    0.00000       Uiso       1.00
      C186          C  0.6321700  0.0606200  0.0571000    0.00000       Uiso       1.00
      H121          H  0.6775800  0.1174800  0.0759300    0.00000       Uiso       1.00
      H122          H  0.7105100  0.0457500  0.9465500    0.00000       Uiso       1.00
      H123          H  0.6439300  0.9926300  0.9590000    0.00000       Uiso       1.00
      H124          H  0.6108000  0.0651700  0.0882900    0.00000       Uiso       1.00
       B31          B  0.5794800  0.9910200  0.0326900    0.00000       Uiso       1.00
       O31          O  0.5726200  0.9517300  0.0002100    0.00000       Uiso       1.00
      C187          C  0.1703400  0.5907000  0.5499900    0.00000       Uiso       1.00
      C188          C  0.1986100  0.5859100  0.5099300    0.00000       Uiso       1.00
      C189          C  0.1887500  0.5502100  0.4774700    0.00000       Uiso       1.00
      C190          C  0.1507900  0.5198900  0.4846700    0.00000       Uiso       1.00
      C191          C  0.1221200  0.5249600  0.5245100    0.00000       Uiso       1.00
      C192          C  0.1321700  0.5606200  0.5571000    0.00000       Uiso       1.00
      H125          H  0.1775800  0.6174800  0.5759300    0.00000       Uiso       1.00
      H126          H  0.2105100  0.5457500  0.4465500    0.00000       Uiso       1.00
      H127          H  0.1439300  0.4926300  0.4590000    0.00000       Uiso       1.00
      H128          H  0.1108000  0.5651700  0.5882900    0.00000       Uiso       1.00
       B32          B  0.0794800  0.4910200  0.5326900    0.00000       Uiso       1.00
       O32          O  0.0726200  0.4517300  0.5002100    0.00000       Uiso       1.00
      C193          C  0.5907000  0.4500100  0.3296600    0.00000       Uiso       1.00
      C194          C  0.5859100  0.4900700  0.3013900    0.00000       Uiso       1.00
      C195          C  0.5502100  0.5225300  0.3112500    0.00000       Uiso       1.00
      C196          C  0.5198900  0.5153300  0.3492100    0.00000       Uiso       1.00
      C197          C  0.5249600  0.4754900  0.3778800    0.00000       Uiso       1.00
      C198          C  0.5606200  0.4429000  0.3678300    0.00000       Uiso       1.00
      H129          H  0.6174800  0.4240700  0.3224200    0.00000       Uiso       1.00
      H130          H  0.5457500  0.5534500  0.2894900    0.00000       Uiso       1.00
      H131          H  0.4926300  0.5410000  0.3560700    0.00000       Uiso       1.00
      H132          H  0.5651700  0.4117100  0.3892000    0.00000       Uiso       1.00
       B33          B  0.4910200  0.4673100  0.4205200    0.00000       Uiso       1.00
       O33          O  0.4517300  0.4997900  0.4273800    0.00000       Uiso       1.00
      C199          C  0.0907000  0.9500100  0.8296601    0.00000       Uiso       1.00
      C200          C  0.0859100  0.9900700  0.8013900    0.00000       Uiso       1.00
      C201          C  0.0502100  0.0225300  0.8112500    0.00000       Uiso       1.00
      C202          C  0.0198900  0.0153300  0.8492100    0.00000       Uiso       1.00
      C203          C  0.0249600  0.9754900  0.8778800    0.00000       Uiso       1.00
      C204          C  0.0606200  0.9429000  0.8678300    0.00000       Uiso       1.00
      H133          H  0.1174800  0.9240700  0.8224200    0.00000       Uiso       1.00
      H134          H  0.0457500  0.0534500  0.7894900    0.00000       Uiso       1.00
      H135          H  0.9926300  0.0410000  0.8560700    0.00000       Uiso       1.00
      H136          H  0.0651700  0.9117100  0.8892000    0.00000       Uiso       1.00
       B34          B  0.9910200  0.9673100  0.9205200    0.00000       Uiso       1.00
       O34          O  0.9517300  0.9997900  0.9273800    0.00000       Uiso       1.00
      C205          C  0.4093000  0.9500100  0.1703400    0.00000       Uiso       1.00
      C206          C  0.4140900  0.9900700  0.1986100    0.00000       Uiso       1.00
      C207          C  0.4497900  0.0225300  0.1887500    0.00000       Uiso       1.00
      C208          C  0.4801100  0.0153300  0.1507900    0.00000       Uiso       1.00
      C209          C  0.4750400  0.9754900  0.1221200    0.00000       Uiso       1.00
      C210          C  0.4393800  0.9429000  0.1321700    0.00000       Uiso       1.00
      H137          H  0.3825200  0.9240700  0.1775800    0.00000       Uiso       1.00
      H138          H  0.4542500  0.0534500  0.2105100    0.00000       Uiso       1.00
      H139          H  0.5073700  0.0410000  0.1439300    0.00000       Uiso       1.00
      H140          H  0.4348300  0.9117100  0.1108000    0.00000       Uiso       1.00
       B35          B  0.5089800  0.9673100  0.0794800    0.00000       Uiso       1.00
       O35          O  0.5482700  0.9997900  0.0726200    0.00000       Uiso       1.00
      C211          C  0.9093000  0.4500100  0.6703399    0.00000       Uiso       1.00
      C212          C  0.9140900  0.4900700  0.6986100    0.00000       Uiso       1.00
      C213          C  0.9497900  0.5225300  0.6887500    0.00000       Uiso       1.00
      C214          C  0.9801100  0.5153300  0.6507900    0.00000       Uiso       1.00
      C215          C  0.9750400  0.4754900  0.6221200    0.00000       Uiso       1.00
      C216          C  0.9393800  0.4429000  0.6321700    0.00000       Uiso       1.00
      H141          H  0.8825200  0.4240700  0.6775800    0.00000       Uiso       1.00
      H142          H  0.9542500  0.5534500  0.7105100    0.00000       Uiso       1.00
      H143          H  0.0073700  0.5410000  0.6439300    0.00000       Uiso       1.00
      H144          H  0.9348300  0.4117100  0.6108000    0.00000       Uiso       1.00
       B36          B  0.0089800  0.4673100  0.5794800    0.00000       Uiso       1.00
       O36          O  0.0482700  0.4997900  0.5726200    0.00000       Uiso       1.00
      C217          C  0.9093000  0.5499900  0.8296601    0.00000       Uiso       1.00
      C218          C  0.9140900  0.5099300  0.8013900    0.00000       Uiso       1.00
      C219          C  0.9497900  0.4774700  0.8112500    0.00000       Uiso       1.00
      C220          C  0.9801100  0.4846700  0.8492100    0.00000       Uiso       1.00
      C221          C  0.9750400  0.5245100  0.8778800    0.00000       Uiso       1.00
      C222          C  0.9393800  0.5571000  0.8678300    0.00000       Uiso       1.00
      H145          H  0.8825200  0.5759300  0.8224200    0.00000       Uiso       1.00
      H146          H  0.9542500  0.4465500  0.7894900    0.00000       Uiso       1.00
      H147          H  0.0073700  0.4590000  0.8560700    0.00000       Uiso       1.00
      H148          H  0.9348300  0.5882900  0.8892000    0.00000       Uiso       1.00
       B37          B  0.0089800  0.5326900  0.9205200    0.00000       Uiso       1.00
       O37          O  0.0482700  0.5002100  0.9273800    0.00000       Uiso       1.00
      C223          C  0.4093000  0.0499900  0.3296600    0.00000       Uiso       1.00
      C224          C  0.4140900  0.0099300  0.3013900    0.00000       Uiso       1.00
      C225          C  0.4497900  0.9774700  0.3112500    0.00000       Uiso       1.00
      C226          C  0.4801100  0.9846700  0.3492100    0.00000       Uiso       1.00
      C227          C  0.4750400  0.0245100  0.3778800    0.00000       Uiso       1.00
      C228          C  0.4393800  0.0571000  0.3678300    0.00000       Uiso       1.00
      H149          H  0.3825200  0.0759300  0.3224200    0.00000       Uiso       1.00
      H150          H  0.4542500  0.9465500  0.2894900    0.00000       Uiso       1.00
      H151          H  0.5073700  0.9590000  0.3560700    0.00000       Uiso       1.00
      H152          H  0.4348300  0.0882900  0.3892000    0.00000       Uiso       1.00
       B38          B  0.5089800  0.0326900  0.4205200    0.00000       Uiso       1.00
       O38          O  0.5482700  0.0002100  0.4273800    0.00000       Uiso       1.00
      C229          C  0.0907000  0.0499900  0.6703399    0.00000       Uiso       1.00
      C230          C  0.0859100  0.0099300  0.6986100    0.00000       Uiso       1.00
      C231          C  0.0502100  0.9774700  0.6887500    0.00000       Uiso       1.00
      C232          C  0.0198900  0.9846700  0.6507900    0.00000       Uiso       1.00
      C233          C  0.0249600  0.0245100  0.6221200    0.00000       Uiso       1.00
      C234          C  0.0606200  0.0571000  0.6321700    0.00000       Uiso       1.00
      H153          H  0.1174800  0.0759300  0.6775800    0.00000       Uiso       1.00
      H154          H  0.0457500  0.9465500  0.7105100    0.00000       Uiso       1.00
      H155          H  0.9926300  0.9590000  0.6439300    0.00000       Uiso       1.00
      H156          H  0.0651700  0.0882900  0.6108000    0.00000       Uiso       1.00
       B39          B  0.9910200  0.0326900  0.5794800    0.00000       Uiso       1.00
       O39          O  0.9517300  0.0002100  0.5726200    0.00000       Uiso       1.00
      C235          C  0.5907000  0.5499900  0.1703400    0.00000       Uiso       1.00
      C236          C  0.5859100  0.5099300  0.1986100    0.00000       Uiso       1.00
      C237          C  0.5502100  0.4774700  0.1887500    0.00000       Uiso       1.00
      C238          C  0.5198900  0.4846700  0.1507900    0.00000       Uiso       1.00
      C239          C  0.5249600  0.5245100  0.1221200    0.00000       Uiso       1.00
      C240          C  0.5606200  0.5571000  0.1321700    0.00000       Uiso       1.00
      H157          H  0.6174800  0.5759300  0.1775800    0.00000       Uiso       1.00
      H158          H  0.5457500  0.4465500  0.2105100    0.00000       Uiso       1.00
      H159          H  0.4926300  0.4590000  0.1439300    0.00000       Uiso       1.00
      H160          H  0.5651700  0.5882900  0.1108000    0.00000       Uiso       1.00
       B40          B  0.4910200  0.5326900  0.0794800    0.00000       Uiso       1.00
       O40          O  0.4517300  0.5002100  0.0726200    0.00000       Uiso       1.00
      C241          C  0.4500100  0.3296600  0.5907000    0.00000       Uiso       1.00
      C242          C  0.4900700  0.3013900  0.5859100    0.00000       Uiso       1.00
      C243          C  0.5225300  0.3112500  0.5502100    0.00000       Uiso       1.00
      C244          C  0.5153300  0.3492100  0.5198900    0.00000       Uiso       1.00
      C245          C  0.4754900  0.3778800  0.5249600    0.00000       Uiso       1.00
      C246          C  0.4429000  0.3678300  0.5606200    0.00000       Uiso       1.00
      H161          H  0.4240700  0.3224200  0.6174800    0.00000       Uiso       1.00
      H162          H  0.5534500  0.2894900  0.5457500    0.00000       Uiso       1.00
      H163          H  0.5410000  0.3560700  0.4926300    0.00000       Uiso       1.00
      H164          H  0.4117100  0.3892000  0.5651700    0.00000       Uiso       1.00
       B41          B  0.4673100  0.4205200  0.4910200    0.00000       Uiso       1.00
       O41          O  0.4997900  0.4273800  0.4517300    0.00000       Uiso       1.00
      C247          C  0.9500100  0.8296601  0.0907000    0.00000       Uiso       1.00
      C248          C  0.9900700  0.8013900  0.0859100    0.00000       Uiso       1.00
      C249          C  0.0225300  0.8112500  0.0502100    0.00000       Uiso       1.00
      C250          C  0.0153300  0.8492100  0.0198900    0.00000       Uiso       1.00
      C251          C  0.9754900  0.8778800  0.0249600    0.00000       Uiso       1.00
      C252          C  0.9429000  0.8678300  0.0606200    0.00000       Uiso       1.00
      H165          H  0.9240700  0.8224200  0.1174800    0.00000       Uiso       1.00
      H166          H  0.0534500  0.7894900  0.0457500    0.00000       Uiso       1.00
      H167          H  0.0410000  0.8560700  0.9926300    0.00000       Uiso       1.00
      H168          H  0.9117100  0.8892000  0.0651700    0.00000       Uiso       1.00
       B42          B  0.9673100  0.9205200  0.9910200    0.00000       Uiso       1.00
       O42          O  0.9997900  0.9273800  0.9517300    0.00000       Uiso       1.00
      C253          C  0.9500100  0.1703400  0.4093000    0.00000       Uiso       1.00
      C254          C  0.9900700  0.1986100  0.4140900    0.00000       Uiso       1.00
      C255          C  0.0225300  0.1887500  0.4497900    0.00000       Uiso       1.00
      C256          C  0.0153300  0.1507900  0.4801100    0.00000       Uiso       1.00
      C257          C  0.9754900  0.1221200  0.4750400    0.00000       Uiso       1.00
      C258          C  0.9429000  0.1321700  0.4393800    0.00000       Uiso       1.00
      H169          H  0.9240700  0.1775800  0.3825200    0.00000       Uiso       1.00
      H170          H  0.0534500  0.2105100  0.4542500    0.00000       Uiso       1.00
      H171          H  0.0410000  0.1439300  0.5073700    0.00000       Uiso       1.00
      H172          H  0.9117100  0.1108000  0.4348300    0.00000       Uiso       1.00
       B43          B  0.9673100  0.0794800  0.5089800    0.00000       Uiso       1.00
       O43          O  0.9997900  0.0726200  0.5482700    0.00000       Uiso       1.00
      C259          C  0.4500100  0.6703399  0.9093000    0.00000       Uiso       1.00
      C260          C  0.4900700  0.6986100  0.9140900    0.00000       Uiso       1.00
      C261          C  0.5225300  0.6887500  0.9497900    0.00000       Uiso       1.00
      C262          C  0.5153300  0.6507900  0.9801100    0.00000       Uiso       1.00
      C263          C  0.4754900  0.6221200  0.9750400    0.00000       Uiso       1.00
      C264          C  0.4429000  0.6321700  0.9393800    0.00000       Uiso       1.00
      H173          H  0.4240700  0.6775800  0.8825200    0.00000       Uiso       1.00
      H174          H  0.5534500  0.7105100  0.9542500    0.00000       Uiso       1.00
      H175          H  0.5410000  0.6439300  0.0073700    0.00000       Uiso       1.00
      H176          H  0.4117100  0.6108000  0.9348300    0.00000       Uiso       1.00
       B44          B  0.4673100  0.5794800  0.0089800    0.00000       Uiso       1.00
       O44          O  0.4997900  0.5726200  0.0482700    0.00000       Uiso       1.00
      C265          C  0.5499900  0.8296601  0.9093000    0.00000       Uiso       1.00
      C266          C  0.5099300  0.8013900  0.9140900    0.00000       Uiso       1.00
      C267          C  0.4774700  0.8112500  0.9497900    0.00000       Uiso       1.00
      C268          C  0.4846700  0.8492100  0.9801100    0.00000       Uiso       1.00
      C269          C  0.5245100  0.8778800  0.9750400    0.00000       Uiso       1.00
      C270          C  0.5571000  0.8678300  0.9393800    0.00000       Uiso       1.00
      H177          H  0.5759300  0.8224200  0.8825200    0.00000       Uiso       1.00
      H178          H  0.4465500  0.7894900  0.9542500    0.00000       Uiso       1.00
      H179          H  0.4590000  0.8560700  0.0073700    0.00000       Uiso       1.00
      H180          H  0.5882900  0.8892000  0.9348300    0.00000       Uiso       1.00
       B45          B  0.5326900  0.9205200  0.0089800    0.00000       Uiso       1.00
       O45          O  0.5002100  0.9273800  0.0482700    0.00000       Uiso       1.00
      C271          C  0.0499900  0.3296600  0.4093000    0.00000       Uiso       1.00
      C272          C  0.0099300  0.3013900  0.4140900    0.00000       Uiso       1.00
      C273          C  0.9774700  0.3112500  0.4497900    0.00000       Uiso       1.00
      C274          C  0.9846700  0.3492100  0.4801100    0.00000       Uiso       1.00
      C275          C  0.0245100  0.3778800  0.4750400    0.00000       Uiso       1.00
      C276          C  0.0571000  0.3678300  0.4393800    0.00000       Uiso       1.00
      H181          H  0.0759300  0.3224200  0.3825200    0.00000       Uiso       1.00
      H182          H  0.9465500  0.2894900  0.4542500    0.00000       Uiso       1.00
      H183          H  0.9590000  0.3560700  0.5073700    0.00000       Uiso       1.00
      H184          H  0.0882900  0.3892000  0.4348300    0.00000       Uiso       1.00
       B46          B  0.0326900  0.4205200  0.5089800    0.00000       Uiso       1.00
       O46          O  0.0002100  0.4273800  0.5482700    0.00000       Uiso       1.00
      C277          C  0.0499900  0.6703399  0.0907000    0.00000       Uiso       1.00
      C278          C  0.0099300  0.6986100  0.0859100    0.00000       Uiso       1.00
      C279          C  0.9774700  0.6887500  0.0502100    0.00000       Uiso       1.00
      C280          C  0.9846700  0.6507900  0.0198900    0.00000       Uiso       1.00
      C281          C  0.0245100  0.6221200  0.0249600    0.00000       Uiso       1.00
      C282          C  0.0571000  0.6321700  0.0606200    0.00000       Uiso       1.00
      H185          H  0.0759300  0.6775800  0.1174800    0.00000       Uiso       1.00
      H186          H  0.9465500  0.7105100  0.0457500    0.00000       Uiso       1.00
      H187          H  0.9590000  0.6439300  0.9926300    0.00000       Uiso       1.00
      H188          H  0.0882900  0.6108000  0.0651700    0.00000       Uiso       1.00
       B47          B  0.0326900  0.5794800  0.9910200    0.00000       Uiso       1.00
       O47          O  0.0002100  0.5726200  0.9517300    0.00000       Uiso       1.00
      C283          C  0.5499900  0.1703400  0.5907000    0.00000       Uiso       1.00
      C284          C  0.5099300  0.1986100  0.5859100    0.00000       Uiso       1.00
      C285          C  0.4774700  0.1887500  0.5502100    0.00000       Uiso       1.00
      C286          C  0.4846700  0.1507900  0.5198900    0.00000       Uiso       1.00
      C287          C  0.5245100  0.1221200  0.5249600    0.00000       Uiso       1.00
      C288          C  0.5571000  0.1321700  0.5606200    0.00000       Uiso       1.00
      H189          H  0.5759300  0.1775800  0.6174800    0.00000       Uiso       1.00
      H190          H  0.4465500  0.2105100  0.5457500    0.00000       Uiso       1.00
      H191          H  0.4590000  0.1439300  0.4926300    0.00000       Uiso       1.00
      H192          H  0.5882900  0.1108000  0.5651700    0.00000       Uiso       1.00
       B48          B  0.5326900  0.0794800  0.4910200    0.00000       Uiso       1.00
       O48          O  0.5002100  0.0726200  0.4517300    0.00000       Uiso       1.00
       Si1         Si  0.3750000  0.0000000  0.2500000    0.00000       Uiso       1.00
       Si2         Si  0.1250000  0.0000000  0.7499999    0.00000       Uiso       1.00
       Si3         Si  0.6250000  0.5000000  0.2500000    0.00000       Uiso       1.00
       Si4         Si  0.8750000  0.5000000  0.7499999    0.00000       Uiso       1.00
       Si5         Si  0.2500000  0.3750000  0.0000000    0.00000       Uiso       1.00
       Si6         Si  0.7499999  0.1250000  0.0000000    0.00000       Uiso       1.00
       Si7         Si  0.2500000  0.6250000  0.5000000    0.00000       Uiso       1.00
       Si8         Si  0.7499999  0.8750000  0.5000000    0.00000       Uiso       1.00
       Si9         Si  0.0000000  0.2500000  0.3750000    0.00000       Uiso       1.00
      Si10         Si  0.0000000  0.7499999  0.1250000    0.00000       Uiso       1.00
      Si11         Si  0.5000000  0.2500000  0.6250000    0.00000       Uiso       1.00
      Si12         Si  0.5000000  0.7499999  0.8750000    0.00000       Uiso       1.00
