data_crystal
 
_cell_length_a    44.88600
_cell_length_b    44.88600
_cell_length_c    44.88600
_cell_angle_alpha 90.00000
_cell_angle_beta  90.00000
_cell_angle_gamma 90.00000
 
_symmetry_space_group_name_Hall 'P 1'
_symmetry_space_group_name_H-M  'P 1'
 
loop_
_symmetry_equiv_pos_as_xyz
 'x,y,z' 
 
loop_
_atom_site_label
_atom_site_type_symbol
_atom_site_fract_x
_atom_site_fract_y
_atom_site_fract_z
_atom_site_charge
C          C       0.22645   0.21781   0.18335   0.0000000000
C          C       0.20018   0.23477   0.19174   0.0000000000
C          C       0.23455   0.25261   0.14166   0.0000000000
C          C       0.20882   0.26778   0.14873   0.0000000000
C          C       0.19137   0.25958   0.17328   0.0000000000
C          C       0.24387   0.22787   0.15826   0.0000000000
C          C       0.35228   0.05035   0.21728   0.0000000000
C          C       0.34987   0.03288   0.24348   0.0000000000
C          C       0.32755   0.03978   0.26475   0.0000000000
C          C       0.30811   0.06410   0.26008   0.0000000000
C          C       0.31075   0.08180   0.23403   0.0000000000
C          C       0.33294   0.07478   0.21265   0.0000000000
H          H       0.17131   0.27270   0.17680   0.0000000000
H          H       0.26464   0.21763   0.15114   0.0000000000
H          H       0.36894   0.04522   0.20028   0.0000000000
H          H       0.33529   0.08803   0.19228   0.0000000000
H          H       0.32518   0.02632   0.28497   0.0000000000
H          H       0.29108   0.06904   0.27686   0.0000000000
B          B       0.28905   0.10906   0.22877   0.0000000000
O          O       0.24923   0.26434   0.11672   0.0000000000
O          O       0.12931   0.20284   0.29149   0.0000000000
C          C       0.72645   0.71781   0.68335   0.0000000000
C          C       0.70018   0.73477   0.69174   0.0000000000
C          C       0.73455   0.75261   0.64166   0.0000000000
C          C       0.70882   0.76778   0.64873   0.0000000000
C          C       0.69137   0.75958   0.67328   0.0000000000
C          C       0.74387   0.72787   0.65826   0.0000000000
C          C       0.85228   0.55035   0.71728   0.0000000000
C          C       0.84987   0.53288   0.74348   0.0000000000
C          C       0.82755   0.53978   0.76475   0.0000000000
C          C       0.80811   0.56410   0.76008   0.0000000000
C          C       0.81075   0.58180   0.73403   0.0000000000
C          C       0.83294   0.57478   0.71265   0.0000000000
H          H       0.67131   0.77270   0.67680   0.0000000000
H          H       0.76464   0.71763   0.65114   0.0000000000
H          H       0.86894   0.54522   0.70028   0.0000000000
H          H       0.83529   0.58803   0.69228   0.0000000000
H          H       0.82518   0.52632   0.78497   0.0000000000
H          H       0.79108   0.56904   0.77686   0.0000000000
B          B       0.78905   0.60906   0.72877   0.0000000000
O          O       0.74923   0.76434   0.61672   0.0000000000
O          O       0.62931   0.70284   0.79149   0.0000000000
C          C       0.27355   0.78219   0.68335   0.0000000000
C          C       0.29982   0.76523   0.69174   0.0000000000
C          C       0.26545   0.74739   0.64166   0.0000000000
C          C       0.29118   0.73222   0.64873   0.0000000000
C          C       0.30863   0.74042   0.67328   0.0000000000
C          C       0.25613   0.77213   0.65826   0.0000000000
C          C       0.14772   0.94965   0.71728   0.0000000000
C          C       0.15013   0.96712   0.74348   0.0000000000
C          C       0.17245   0.96022   0.76475   0.0000000000
C          C       0.19189   0.93590   0.76008   0.0000000000
C          C       0.18925   0.91820   0.73403   0.0000000000
C          C       0.16706   0.92522   0.71265   0.0000000000
H          H       0.32869   0.72730   0.67680   0.0000000000
H          H       0.23536   0.78237   0.65114   0.0000000000
H          H       0.13106   0.95478   0.70028   0.0000000000
H          H       0.16471   0.91197   0.69228   0.0000000000
H          H       0.17482   0.97368   0.78497   0.0000000000
H          H       0.20892   0.93096   0.77686   0.0000000000
B          B       0.21095   0.89094   0.72877   0.0000000000
O          O       0.25077   0.73566   0.61672   0.0000000000
O          O       0.37069   0.79716   0.79149   0.0000000000
C          C       0.77355   0.28219   0.18335   0.0000000000
C          C       0.79982   0.26523   0.19174   0.0000000000
C          C       0.76545   0.24739   0.14166   0.0000000000
C          C       0.79118   0.23222   0.14873   0.0000000000
C          C       0.80863   0.24042   0.17328   0.0000000000
C          C       0.75613   0.27213   0.15826   0.0000000000
C          C       0.64772   0.44965   0.21728   0.0000000000
C          C       0.65013   0.46712   0.24348   0.0000000000
C          C       0.67245   0.46022   0.26475   0.0000000000
C          C       0.69189   0.43590   0.26008   0.0000000000
C          C       0.68925   0.41820   0.23403   0.0000000000
C          C       0.66706   0.42522   0.21265   0.0000000000
H          H       0.82869   0.22730   0.17680   0.0000000000
H          H       0.73536   0.28237   0.15114   0.0000000000
H          H       0.63106   0.45478   0.20028   0.0000000000
H          H       0.66471   0.41197   0.19228   0.0000000000
H          H       0.67482   0.47368   0.28497   0.0000000000
H          H       0.70892   0.43096   0.27686   0.0000000000
B          B       0.71095   0.39094   0.22877   0.0000000000
O          O       0.75077   0.23566   0.11672   0.0000000000
O          O       0.87069   0.29716   0.29149   0.0000000000
C          C       0.77355   0.71781   0.31665   0.0000000000
C          C       0.79982   0.73477   0.30826   0.0000000000
C          C       0.76545   0.75261   0.35834   0.0000000000
C          C       0.79118   0.76778   0.35127   0.0000000000
C          C       0.80863   0.75958   0.32672   0.0000000000
C          C       0.75613   0.72787   0.34174   0.0000000000
C          C       0.64772   0.55035   0.28272   0.0000000000
C          C       0.65013   0.53288   0.25652   0.0000000000
C          C       0.67245   0.53978   0.23525   0.0000000000
C          C       0.69189   0.56410   0.23992   0.0000000000
C          C       0.68925   0.58180   0.26597   0.0000000000
C          C       0.66706   0.57478   0.28735   0.0000000000
H          H       0.82869   0.77270   0.32320   0.0000000000
H          H       0.73536   0.71763   0.34886   0.0000000000
H          H       0.63106   0.54522   0.29972   0.0000000000
H          H       0.66471   0.58803   0.30772   0.0000000000
H          H       0.67482   0.52632   0.21503   0.0000000000
H          H       0.70892   0.56904   0.22314   0.0000000000
B          B       0.71095   0.60906   0.27123   0.0000000000
O          O       0.75077   0.76434   0.38328   0.0000000000
O          O       0.87069   0.70284   0.20851   0.0000000000
C          C       0.27355   0.21781   0.81665   0.0000000000
C          C       0.29982   0.23477   0.80826   0.0000000000
C          C       0.26545   0.25261   0.85834   0.0000000000
C          C       0.29118   0.26778   0.85127   0.0000000000
C          C       0.30863   0.25958   0.82672   0.0000000000
C          C       0.25613   0.22787   0.84174   0.0000000000
C          C       0.14772   0.05035   0.78272   0.0000000000
C          C       0.15013   0.03288   0.75652   0.0000000000
C          C       0.17245   0.03978   0.73525   0.0000000000
C          C       0.19189   0.06410   0.73992   0.0000000000
C          C       0.18925   0.08180   0.76597   0.0000000000
C          C       0.16706   0.07478   0.78735   0.0000000000
H          H       0.32869   0.27270   0.82320   0.0000000000
H          H       0.23536   0.21763   0.84886   0.0000000000
H          H       0.13106   0.04522   0.79972   0.0000000000
H          H       0.16471   0.08803   0.80772   0.0000000000
H          H       0.17482   0.02632   0.71503   0.0000000000
H          H       0.20892   0.06904   0.72314   0.0000000000
B          B       0.21095   0.10906   0.77123   0.0000000000
O          O       0.25077   0.26434   0.88328   0.0000000000
O          O       0.37069   0.20284   0.70851   0.0000000000
C          C       0.72645   0.28219   0.81665   0.0000000000
C          C       0.70018   0.26523   0.80826   0.0000000000
C          C       0.73455   0.24739   0.85834   0.0000000000
C          C       0.70882   0.23222   0.85127   0.0000000000
C          C       0.69137   0.24042   0.82672   0.0000000000
C          C       0.74387   0.27213   0.84174   0.0000000000
C          C       0.85228   0.44965   0.78272   0.0000000000
C          C       0.84987   0.46712   0.75652   0.0000000000
C          C       0.82755   0.46022   0.73525   0.0000000000
C          C       0.80811   0.43590   0.73992   0.0000000000
C          C       0.81075   0.41820   0.76597   0.0000000000
C          C       0.83294   0.42522   0.78735   0.0000000000
H          H       0.67131   0.22730   0.82320   0.0000000000
H          H       0.76464   0.28237   0.84886   0.0000000000
H          H       0.86894   0.45478   0.79972   0.0000000000
H          H       0.83529   0.41197   0.80772   0.0000000000
H          H       0.82518   0.47368   0.71503   0.0000000000
H          H       0.79108   0.43096   0.72314   0.0000000000
B          B       0.78905   0.39094   0.77123   0.0000000000
O          O       0.74923   0.23566   0.88328   0.0000000000
O          O       0.62931   0.29716   0.70851   0.0000000000
C          C       0.22645   0.78219   0.31665   0.0000000000
C          C       0.20018   0.76523   0.30826   0.0000000000
C          C       0.23455   0.74739   0.35834   0.0000000000
C          C       0.20882   0.73222   0.35127   0.0000000000
C          C       0.19137   0.74042   0.32672   0.0000000000
C          C       0.24387   0.77213   0.34174   0.0000000000
C          C       0.35228   0.94965   0.28272   0.0000000000
C          C       0.34987   0.96712   0.25652   0.0000000000
C          C       0.32755   0.96022   0.23525   0.0000000000
C          C       0.30811   0.93590   0.23992   0.0000000000
C          C       0.31075   0.91820   0.26597   0.0000000000
C          C       0.33294   0.92522   0.28735   0.0000000000
H          H       0.17131   0.72730   0.32320   0.0000000000
H          H       0.26464   0.78237   0.34886   0.0000000000
H          H       0.36894   0.95478   0.29972   0.0000000000
H          H       0.33529   0.91197   0.30772   0.0000000000
H          H       0.32518   0.97368   0.21503   0.0000000000
H          H       0.29108   0.93096   0.22314   0.0000000000
B          B       0.28905   0.89094   0.27123   0.0000000000
O          O       0.24923   0.73566   0.38328   0.0000000000
O          O       0.12931   0.79716   0.20851   0.0000000000
C          C       0.18335   0.22645   0.21781   0.0000000000
C          C       0.19174   0.20018   0.23477   0.0000000000
C          C       0.14166   0.23455   0.25261   0.0000000000
C          C       0.14873   0.20882   0.26778   0.0000000000
C          C       0.17328   0.19137   0.25958   0.0000000000
C          C       0.15826   0.24387   0.22787   0.0000000000
C          C       0.21728   0.35228   0.05035   0.0000000000
C          C       0.24348   0.34987   0.03288   0.0000000000
C          C       0.26475   0.32755   0.03978   0.0000000000
C          C       0.26008   0.30811   0.06410   0.0000000000
C          C       0.23403   0.31075   0.08180   0.0000000000
C          C       0.21265   0.33294   0.07478   0.0000000000
H          H       0.17680   0.17131   0.27270   0.0000000000
H          H       0.15114   0.26464   0.21763   0.0000000000
H          H       0.20028   0.36894   0.04522   0.0000000000
H          H       0.19228   0.33529   0.08803   0.0000000000
H          H       0.28497   0.32518   0.02632   0.0000000000
H          H       0.27686   0.29108   0.06904   0.0000000000
B          B       0.22877   0.28905   0.10906   0.0000000000
O          O       0.11672   0.24923   0.26434   0.0000000000
O          O       0.29149   0.12931   0.20284   0.0000000000
C          C       0.68335   0.72645   0.71781   0.0000000000
C          C       0.69174   0.70018   0.73477   0.0000000000
C          C       0.64166   0.73455   0.75261   0.0000000000
C          C       0.64873   0.70882   0.76778   0.0000000000
C          C       0.67328   0.69137   0.75958   0.0000000000
C          C       0.65826   0.74387   0.72787   0.0000000000
C          C       0.71728   0.85228   0.55035   0.0000000000
C          C       0.74348   0.84987   0.53288   0.0000000000
C          C       0.76475   0.82755   0.53978   0.0000000000
C          C       0.76008   0.80811   0.56410   0.0000000000
C          C       0.73403   0.81075   0.58180   0.0000000000
C          C       0.71265   0.83294   0.57478   0.0000000000
H          H       0.67680   0.67131   0.77270   0.0000000000
H          H       0.65114   0.76464   0.71763   0.0000000000
H          H       0.70028   0.86894   0.54522   0.0000000000
H          H       0.69228   0.83529   0.58803   0.0000000000
H          H       0.78497   0.82518   0.52632   0.0000000000
H          H       0.77686   0.79108   0.56904   0.0000000000
B          B       0.72877   0.78905   0.60906   0.0000000000
O          O       0.61672   0.74923   0.76434   0.0000000000
O          O       0.79149   0.62931   0.70284   0.0000000000
C          C       0.68335   0.27355   0.78219   0.0000000000
C          C       0.69174   0.29982   0.76523   0.0000000000
C          C       0.64166   0.26545   0.74739   0.0000000000
C          C       0.64873   0.29118   0.73222   0.0000000000
C          C       0.67328   0.30863   0.74042   0.0000000000
C          C       0.65826   0.25613   0.77213   0.0000000000
C          C       0.71728   0.14772   0.94965   0.0000000000
C          C       0.74348   0.15013   0.96712   0.0000000000
C          C       0.76475   0.17245   0.96022   0.0000000000
C          C       0.76008   0.19189   0.93590   0.0000000000
C          C       0.73403   0.18925   0.91820   0.0000000000
C          C       0.71265   0.16706   0.92522   0.0000000000
H          H       0.67680   0.32869   0.72730   0.0000000000
H          H       0.65114   0.23536   0.78237   0.0000000000
H          H       0.70028   0.13106   0.95478   0.0000000000
H          H       0.69228   0.16471   0.91197   0.0000000000
H          H       0.78497   0.17482   0.97368   0.0000000000
H          H       0.77686   0.20892   0.93096   0.0000000000
B          B       0.72877   0.21095   0.89094   0.0000000000
O          O       0.61672   0.25077   0.73566   0.0000000000
O          O       0.79149   0.37069   0.79716   0.0000000000
C          C       0.18335   0.77355   0.28219   0.0000000000
C          C       0.19174   0.79982   0.26523   0.0000000000
C          C       0.14166   0.76545   0.24739   0.0000000000
C          C       0.14873   0.79118   0.23222   0.0000000000
C          C       0.17328   0.80863   0.24042   0.0000000000
C          C       0.15826   0.75613   0.27213   0.0000000000
C          C       0.21728   0.64772   0.44965   0.0000000000
C          C       0.24348   0.65013   0.46712   0.0000000000
C          C       0.26475   0.67245   0.46022   0.0000000000
C          C       0.26008   0.69189   0.43590   0.0000000000
C          C       0.23403   0.68925   0.41820   0.0000000000
C          C       0.21265   0.66706   0.42522   0.0000000000
H          H       0.17680   0.82869   0.22730   0.0000000000
H          H       0.15114   0.73536   0.28237   0.0000000000
H          H       0.20028   0.63106   0.45478   0.0000000000
H          H       0.19228   0.66471   0.41197   0.0000000000
H          H       0.28497   0.67482   0.47368   0.0000000000
H          H       0.27686   0.70892   0.43096   0.0000000000
B          B       0.22877   0.71095   0.39094   0.0000000000
O          O       0.11672   0.75077   0.23566   0.0000000000
O          O       0.29149   0.87069   0.29716   0.0000000000
C          C       0.31665   0.77355   0.71781   0.0000000000
C          C       0.30826   0.79982   0.73477   0.0000000000
C          C       0.35834   0.76545   0.75261   0.0000000000
C          C       0.35127   0.79118   0.76778   0.0000000000
C          C       0.32672   0.80863   0.75958   0.0000000000
C          C       0.34174   0.75613   0.72787   0.0000000000
C          C       0.28272   0.64772   0.55035   0.0000000000
C          C       0.25652   0.65013   0.53288   0.0000000000
C          C       0.23525   0.67245   0.53978   0.0000000000
C          C       0.23992   0.69189   0.56410   0.0000000000
C          C       0.26597   0.68925   0.58180   0.0000000000
C          C       0.28735   0.66706   0.57478   0.0000000000
H          H       0.32320   0.82869   0.77270   0.0000000000
H          H       0.34886   0.73536   0.71763   0.0000000000
H          H       0.29972   0.63106   0.54522   0.0000000000
H          H       0.30772   0.66471   0.58803   0.0000000000
H          H       0.21503   0.67482   0.52632   0.0000000000
H          H       0.22314   0.70892   0.56904   0.0000000000
B          B       0.27123   0.71095   0.60906   0.0000000000
O          O       0.38328   0.75077   0.76434   0.0000000000
O          O       0.20851   0.87069   0.70284   0.0000000000
C          C       0.81665   0.27355   0.21781   0.0000000000
C          C       0.80826   0.29982   0.23477   0.0000000000
C          C       0.85834   0.26545   0.25261   0.0000000000
C          C       0.85127   0.29118   0.26778   0.0000000000
C          C       0.82672   0.30863   0.25958   0.0000000000
C          C       0.84174   0.25613   0.22787   0.0000000000
C          C       0.78272   0.14772   0.05035   0.0000000000
C          C       0.75652   0.15013   0.03288   0.0000000000
C          C       0.73525   0.17245   0.03978   0.0000000000
C          C       0.73992   0.19189   0.06410   0.0000000000
C          C       0.76597   0.18925   0.08180   0.0000000000
C          C       0.78735   0.16706   0.07478   0.0000000000
H          H       0.82320   0.32869   0.27270   0.0000000000
H          H       0.84886   0.23536   0.21763   0.0000000000
H          H       0.79972   0.13106   0.04522   0.0000000000
H          H       0.80772   0.16471   0.08803   0.0000000000
H          H       0.71503   0.17482   0.02632   0.0000000000
H          H       0.72314   0.20892   0.06904   0.0000000000
B          B       0.77123   0.21095   0.10906   0.0000000000
O          O       0.88328   0.25077   0.26434   0.0000000000
O          O       0.70851   0.37069   0.20284   0.0000000000
C          C       0.81665   0.72645   0.28219   0.0000000000
C          C       0.80826   0.70018   0.26523   0.0000000000
C          C       0.85834   0.73455   0.24739   0.0000000000
C          C       0.85127   0.70882   0.23222   0.0000000000
C          C       0.82672   0.69137   0.24042   0.0000000000
C          C       0.84174   0.74387   0.27213   0.0000000000
C          C       0.78272   0.85228   0.44965   0.0000000000
C          C       0.75652   0.84987   0.46712   0.0000000000
C          C       0.73525   0.82755   0.46022   0.0000000000
C          C       0.73992   0.80811   0.43590   0.0000000000
C          C       0.76597   0.81075   0.41820   0.0000000000
C          C       0.78735   0.83294   0.42522   0.0000000000
H          H       0.82320   0.67131   0.22730   0.0000000000
H          H       0.84886   0.76464   0.28237   0.0000000000
H          H       0.79972   0.86894   0.45478   0.0000000000
H          H       0.80772   0.83529   0.41197   0.0000000000
H          H       0.71503   0.82518   0.47368   0.0000000000
H          H       0.72314   0.79108   0.43096   0.0000000000
B          B       0.77123   0.78905   0.39094   0.0000000000
O          O       0.88328   0.74923   0.23566   0.0000000000
O          O       0.70851   0.62931   0.29716   0.0000000000
C          C       0.31665   0.22645   0.78219   0.0000000000
C          C       0.30826   0.20018   0.76523   0.0000000000
C          C       0.35834   0.23455   0.74739   0.0000000000
C          C       0.35127   0.20882   0.73222   0.0000000000
C          C       0.32672   0.19137   0.74042   0.0000000000
C          C       0.34174   0.24387   0.77213   0.0000000000
C          C       0.28272   0.35228   0.94965   0.0000000000
C          C       0.25652   0.34987   0.96712   0.0000000000
C          C       0.23525   0.32755   0.96022   0.0000000000
C          C       0.23992   0.30811   0.93590   0.0000000000
C          C       0.26597   0.31075   0.91820   0.0000000000
C          C       0.28735   0.33294   0.92522   0.0000000000
H          H       0.32320   0.17131   0.72730   0.0000000000
H          H       0.34886   0.26464   0.78237   0.0000000000
H          H       0.29972   0.36894   0.95478   0.0000000000
H          H       0.30772   0.33529   0.91197   0.0000000000
H          H       0.21503   0.32518   0.97368   0.0000000000
H          H       0.22314   0.29108   0.93096   0.0000000000
B          B       0.27123   0.28905   0.89094   0.0000000000
O          O       0.38328   0.24923   0.73566   0.0000000000
O          O       0.20851   0.12931   0.79716   0.0000000000
C          C       0.21781   0.18335   0.22645   0.0000000000
C          C       0.23477   0.19174   0.20018   0.0000000000
C          C       0.25261   0.14166   0.23455   0.0000000000
C          C       0.26778   0.14873   0.20882   0.0000000000
C          C       0.25958   0.17328   0.19137   0.0000000000
C          C       0.22787   0.15826   0.24387   0.0000000000
C          C       0.05035   0.21728   0.35228   0.0000000000
C          C       0.03288   0.24348   0.34987   0.0000000000
C          C       0.03978   0.26475   0.32755   0.0000000000
C          C       0.06410   0.26008   0.30811   0.0000000000
C          C       0.08180   0.23403   0.31075   0.0000000000
C          C       0.07478   0.21265   0.33294   0.0000000000
H          H       0.27270   0.17680   0.17131   0.0000000000
H          H       0.21763   0.15114   0.26464   0.0000000000
H          H       0.04522   0.20028   0.36894   0.0000000000
H          H       0.08803   0.19228   0.33529   0.0000000000
H          H       0.02632   0.28497   0.32518   0.0000000000
H          H       0.06904   0.27686   0.29108   0.0000000000
B          B       0.10906   0.22877   0.28905   0.0000000000
O          O       0.26434   0.11672   0.24923   0.0000000000
O          O       0.20284   0.29149   0.12931   0.0000000000
C          C       0.71781   0.68335   0.72645   0.0000000000
C          C       0.73477   0.69174   0.70018   0.0000000000
C          C       0.75261   0.64166   0.73455   0.0000000000
C          C       0.76778   0.64873   0.70882   0.0000000000
C          C       0.75958   0.67328   0.69137   0.0000000000
C          C       0.72787   0.65826   0.74387   0.0000000000
C          C       0.55035   0.71728   0.85228   0.0000000000
C          C       0.53288   0.74348   0.84987   0.0000000000
C          C       0.53978   0.76475   0.82755   0.0000000000
C          C       0.56410   0.76008   0.80811   0.0000000000
C          C       0.58180   0.73403   0.81075   0.0000000000
C          C       0.57478   0.71265   0.83294   0.0000000000
H          H       0.77270   0.67680   0.67131   0.0000000000
H          H       0.71763   0.65114   0.76464   0.0000000000
H          H       0.54522   0.70028   0.86894   0.0000000000
H          H       0.58803   0.69228   0.83529   0.0000000000
H          H       0.52632   0.78497   0.82518   0.0000000000
H          H       0.56904   0.77686   0.79108   0.0000000000
B          B       0.60906   0.72877   0.78905   0.0000000000
O          O       0.76434   0.61672   0.74923   0.0000000000
O          O       0.70284   0.79149   0.62931   0.0000000000
C          C       0.78219   0.68335   0.27355   0.0000000000
C          C       0.76523   0.69174   0.29982   0.0000000000
C          C       0.74739   0.64166   0.26545   0.0000000000
C          C       0.73222   0.64873   0.29118   0.0000000000
C          C       0.74042   0.67328   0.30863   0.0000000000
C          C       0.77213   0.65826   0.25613   0.0000000000
C          C       0.94965   0.71728   0.14772   0.0000000000
C          C       0.96712   0.74348   0.15013   0.0000000000
C          C       0.96022   0.76475   0.17245   0.0000000000
C          C       0.93590   0.76008   0.19189   0.0000000000
C          C       0.91820   0.73403   0.18925   0.0000000000
C          C       0.92522   0.71265   0.16706   0.0000000000
H          H       0.72730   0.67680   0.32869   0.0000000000
H          H       0.78237   0.65114   0.23536   0.0000000000
H          H       0.95478   0.70028   0.13106   0.0000000000
H          H       0.91197   0.69228   0.16471   0.0000000000
H          H       0.97368   0.78497   0.17482   0.0000000000
H          H       0.93096   0.77686   0.20892   0.0000000000
B          B       0.89094   0.72877   0.21095   0.0000000000
O          O       0.73566   0.61672   0.25077   0.0000000000
O          O       0.79716   0.79149   0.37069   0.0000000000
C          C       0.28219   0.18335   0.77355   0.0000000000
C          C       0.26523   0.19174   0.79982   0.0000000000
C          C       0.24739   0.14166   0.76545   0.0000000000
C          C       0.23222   0.14873   0.79118   0.0000000000
C          C       0.24042   0.17328   0.80863   0.0000000000
C          C       0.27213   0.15826   0.75613   0.0000000000
C          C       0.44965   0.21728   0.64772   0.0000000000
C          C       0.46712   0.24348   0.65013   0.0000000000
C          C       0.46022   0.26475   0.67245   0.0000000000
C          C       0.43590   0.26008   0.69189   0.0000000000
C          C       0.41820   0.23403   0.68925   0.0000000000
C          C       0.42522   0.21265   0.66706   0.0000000000
H          H       0.22730   0.17680   0.82869   0.0000000000
H          H       0.28237   0.15114   0.73536   0.0000000000
H          H       0.45478   0.20028   0.63106   0.0000000000
H          H       0.41197   0.19228   0.66471   0.0000000000
H          H       0.47368   0.28497   0.67482   0.0000000000
H          H       0.43096   0.27686   0.70892   0.0000000000
B          B       0.39094   0.22877   0.71095   0.0000000000
O          O       0.23566   0.11672   0.75077   0.0000000000
O          O       0.29716   0.29149   0.87069   0.0000000000
C          C       0.71781   0.31665   0.77355   0.0000000000
C          C       0.73477   0.30826   0.79982   0.0000000000
C          C       0.75261   0.35834   0.76545   0.0000000000
C          C       0.76778   0.35127   0.79118   0.0000000000
C          C       0.75958   0.32672   0.80863   0.0000000000
C          C       0.72787   0.34174   0.75613   0.0000000000
C          C       0.55035   0.28272   0.64772   0.0000000000
C          C       0.53288   0.25652   0.65013   0.0000000000
C          C       0.53978   0.23525   0.67245   0.0000000000
C          C       0.56410   0.23992   0.69189   0.0000000000
C          C       0.58180   0.26597   0.68925   0.0000000000
C          C       0.57478   0.28735   0.66706   0.0000000000
H          H       0.77270   0.32320   0.82869   0.0000000000
H          H       0.71763   0.34886   0.73536   0.0000000000
H          H       0.54522   0.29972   0.63106   0.0000000000
H          H       0.58803   0.30772   0.66471   0.0000000000
H          H       0.52632   0.21503   0.67482   0.0000000000
H          H       0.56904   0.22314   0.70892   0.0000000000
B          B       0.60906   0.27123   0.71095   0.0000000000
O          O       0.76434   0.38328   0.75077   0.0000000000
O          O       0.70284   0.20851   0.87069   0.0000000000
C          C       0.21781   0.81665   0.27355   0.0000000000
C          C       0.23477   0.80826   0.29982   0.0000000000
C          C       0.25261   0.85834   0.26545   0.0000000000
C          C       0.26778   0.85127   0.29118   0.0000000000
C          C       0.25958   0.82672   0.30863   0.0000000000
C          C       0.22787   0.84174   0.25613   0.0000000000
C          C       0.05035   0.78272   0.14772   0.0000000000
C          C       0.03288   0.75652   0.15013   0.0000000000
C          C       0.03978   0.73525   0.17245   0.0000000000
C          C       0.06410   0.73992   0.19189   0.0000000000
C          C       0.08180   0.76597   0.18925   0.0000000000
C          C       0.07478   0.78735   0.16706   0.0000000000
H          H       0.27270   0.82320   0.32869   0.0000000000
H          H       0.21763   0.84886   0.23536   0.0000000000
H          H       0.04522   0.79972   0.13106   0.0000000000
H          H       0.08803   0.80772   0.16471   0.0000000000
H          H       0.02632   0.71503   0.17482   0.0000000000
H          H       0.06904   0.72314   0.20892   0.0000000000
B          B       0.10906   0.77123   0.21095   0.0000000000
O          O       0.26434   0.88328   0.25077   0.0000000000
O          O       0.20284   0.70851   0.37069   0.0000000000
C          C       0.28219   0.81665   0.72645   0.0000000000
C          C       0.26523   0.80826   0.70018   0.0000000000
C          C       0.24739   0.85834   0.73455   0.0000000000
C          C       0.23222   0.85127   0.70882   0.0000000000
C          C       0.24042   0.82672   0.69137   0.0000000000
C          C       0.27213   0.84174   0.74387   0.0000000000
C          C       0.44965   0.78272   0.85228   0.0000000000
C          C       0.46712   0.75652   0.84987   0.0000000000
C          C       0.46022   0.73525   0.82755   0.0000000000
C          C       0.43590   0.73992   0.80811   0.0000000000
C          C       0.41820   0.76597   0.81075   0.0000000000
C          C       0.42522   0.78735   0.83294   0.0000000000
H          H       0.22730   0.82320   0.67131   0.0000000000
H          H       0.28237   0.84886   0.76464   0.0000000000
H          H       0.45478   0.79972   0.86894   0.0000000000
H          H       0.41197   0.80772   0.83529   0.0000000000
H          H       0.47368   0.71503   0.82518   0.0000000000
H          H       0.43096   0.72314   0.79108   0.0000000000
B          B       0.39094   0.77123   0.78905   0.0000000000
O          O       0.23566   0.88328   0.74923   0.0000000000
O          O       0.29716   0.70851   0.62931   0.0000000000
C          C       0.78219   0.31665   0.22645   0.0000000000
C          C       0.76523   0.30826   0.20018   0.0000000000
C          C       0.74739   0.35834   0.23455   0.0000000000
C          C       0.73222   0.35127   0.20882   0.0000000000
C          C       0.74042   0.32672   0.19137   0.0000000000
C          C       0.77213   0.34174   0.24387   0.0000000000
C          C       0.94965   0.28272   0.35228   0.0000000000
C          C       0.96712   0.25652   0.34987   0.0000000000
C          C       0.96022   0.23525   0.32755   0.0000000000
C          C       0.93590   0.23992   0.30811   0.0000000000
C          C       0.91820   0.26597   0.31075   0.0000000000
C          C       0.92522   0.28735   0.33294   0.0000000000
H          H       0.72730   0.32320   0.17131   0.0000000000
H          H       0.78237   0.34886   0.26464   0.0000000000
H          H       0.95478   0.29972   0.36894   0.0000000000
H          H       0.91197   0.30772   0.33529   0.0000000000
H          H       0.97368   0.21503   0.32518   0.0000000000
H          H       0.93096   0.22314   0.29108   0.0000000000
B          B       0.89094   0.27123   0.28905   0.0000000000
O          O       0.73566   0.38328   0.24923   0.0000000000
O          O       0.79716   0.20851   0.12931   0.0000000000
C          C       0.46781   0.47645   0.43335   0.0000000000
C          C       0.48477   0.45018   0.44174   0.0000000000
C          C       0.50261   0.48455   0.39166   0.0000000000
C          C       0.51778   0.45882   0.39873   0.0000000000
C          C       0.50958   0.44137   0.42328   0.0000000000
C          C       0.47787   0.49387   0.40826   0.0000000000
C          C       0.30035   0.60228   0.46728   0.0000000000
C          C       0.28288   0.59987   0.49348   0.0000000000
C          C       0.28978   0.57755   0.51475   0.0000000000
C          C       0.31410   0.55811   0.51008   0.0000000000
C          C       0.33180   0.56075   0.48403   0.0000000000
C          C       0.32478   0.58294   0.46265   0.0000000000
H          H       0.52270   0.42131   0.42680   0.0000000000
H          H       0.46763   0.51464   0.40114   0.0000000000
H          H       0.29522   0.61894   0.45028   0.0000000000
H          H       0.33803   0.58529   0.44228   0.0000000000
H          H       0.27632   0.57518   0.53497   0.0000000000
H          H       0.31904   0.54108   0.52686   0.0000000000
B          B       0.35906   0.53905   0.47877   0.0000000000
O          O       0.51434   0.49923   0.36672   0.0000000000
O          O       0.45284   0.37931   0.54149   0.0000000000
C          C       0.96781   0.97645   0.93335   0.0000000000
C          C       0.98477   0.95018   0.94174   0.0000000000
C          C       0.00261   0.98455   0.89166   0.0000000000
C          C       0.01778   0.95882   0.89873   0.0000000000
C          C       0.00958   0.94137   0.92328   0.0000000000
C          C       0.97787   0.99387   0.90826   0.0000000000
C          C       0.80035   0.10228   0.96728   0.0000000000
C          C       0.78288   0.09987   0.99348   0.0000000000
C          C       0.78978   0.07755   0.01475   0.0000000000
C          C       0.81410   0.05811   0.01008   0.0000000000
C          C       0.83180   0.06075   0.98403   0.0000000000
C          C       0.82478   0.08294   0.96265   0.0000000000
H          H       0.02270   0.92131   0.92680   0.0000000000
H          H       0.96763   0.01464   0.90114   0.0000000000
H          H       0.79522   0.11894   0.95028   0.0000000000
H          H       0.83803   0.08529   0.94228   0.0000000000
H          H       0.77632   0.07518   0.03497   0.0000000000
H          H       0.81904   0.04108   0.02686   0.0000000000
B          B       0.85906   0.03905   0.97877   0.0000000000
O          O       0.01434   0.99923   0.86672   0.0000000000
O          O       0.95284   0.87931   0.04149   0.0000000000
C          C       0.03219   0.52355   0.93335   0.0000000000
C          C       0.01523   0.54982   0.94174   0.0000000000
C          C       0.99739   0.51545   0.89166   0.0000000000
C          C       0.98222   0.54118   0.89873   0.0000000000
C          C       0.99042   0.55863   0.92328   0.0000000000
C          C       0.02213   0.50613   0.90826   0.0000000000
C          C       0.19965   0.39772   0.96728   0.0000000000
C          C       0.21712   0.40013   0.99348   0.0000000000
C          C       0.21022   0.42245   0.01475   0.0000000000
C          C       0.18590   0.44189   0.01008   0.0000000000
C          C       0.16820   0.43925   0.98403   0.0000000000
C          C       0.17522   0.41706   0.96265   0.0000000000
H          H       0.97730   0.57869   0.92680   0.0000000000
H          H       0.03237   0.48536   0.90114   0.0000000000
H          H       0.20478   0.38106   0.95028   0.0000000000
H          H       0.16197   0.41471   0.94228   0.0000000000
H          H       0.22368   0.42482   0.03497   0.0000000000
H          H       0.18096   0.45892   0.02686   0.0000000000
B          B       0.14094   0.46095   0.97877   0.0000000000
O          O       0.98566   0.50077   0.86672   0.0000000000
O          O       0.04716   0.62069   0.04149   0.0000000000
C          C       0.53219   0.02355   0.43335   0.0000000000
C          C       0.51523   0.04982   0.44174   0.0000000000
C          C       0.49739   0.01545   0.39166   0.0000000000
C          C       0.48222   0.04118   0.39873   0.0000000000
C          C       0.49042   0.05863   0.42328   0.0000000000
C          C       0.52213   0.00613   0.40826   0.0000000000
C          C       0.69965   0.89772   0.46728   0.0000000000
C          C       0.71712   0.90013   0.49348   0.0000000000
C          C       0.71022   0.92245   0.51475   0.0000000000
C          C       0.68590   0.94189   0.51008   0.0000000000
C          C       0.66820   0.93925   0.48403   0.0000000000
C          C       0.67522   0.91706   0.46265   0.0000000000
H          H       0.47730   0.07869   0.42680   0.0000000000
H          H       0.53237   0.98536   0.40114   0.0000000000
H          H       0.70478   0.88106   0.45028   0.0000000000
H          H       0.66197   0.91471   0.44228   0.0000000000
H          H       0.72368   0.92482   0.53497   0.0000000000
H          H       0.68096   0.95892   0.52686   0.0000000000
B          B       0.64094   0.96095   0.47877   0.0000000000
O          O       0.48566   0.00077   0.36672   0.0000000000
O          O       0.54716   0.12069   0.54149   0.0000000000
C          C       0.96781   0.02355   0.56665   0.0000000000
C          C       0.98477   0.04982   0.55826   0.0000000000
C          C       0.00261   0.01545   0.60834   0.0000000000
C          C       0.01778   0.04118   0.60127   0.0000000000
C          C       0.00958   0.05863   0.57672   0.0000000000
C          C       0.97787   0.00613   0.59174   0.0000000000
C          C       0.80035   0.89772   0.53272   0.0000000000
C          C       0.78288   0.90013   0.50652   0.0000000000
C          C       0.78978   0.92245   0.48525   0.0000000000
C          C       0.81410   0.94189   0.48992   0.0000000000
C          C       0.83180   0.93925   0.51597   0.0000000000
C          C       0.82478   0.91706   0.53735   0.0000000000
H          H       0.02270   0.07869   0.57320   0.0000000000
H          H       0.96763   0.98536   0.59886   0.0000000000
H          H       0.79522   0.88106   0.54972   0.0000000000
H          H       0.83803   0.91471   0.55772   0.0000000000
H          H       0.77632   0.92482   0.46503   0.0000000000
H          H       0.81904   0.95892   0.47314   0.0000000000
B          B       0.85906   0.96095   0.52123   0.0000000000
O          O       0.01434   0.00077   0.63328   0.0000000000
O          O       0.95284   0.12069   0.45851   0.0000000000
C          C       0.46781   0.52355   0.06665   0.0000000000
C          C       0.48477   0.54982   0.05826   0.0000000000
C          C       0.50261   0.51545   0.10834   0.0000000000
C          C       0.51778   0.54118   0.10127   0.0000000000
C          C       0.50958   0.55863   0.07672   0.0000000000
C          C       0.47787   0.50613   0.09174   0.0000000000
C          C       0.30035   0.39772   0.03272   0.0000000000
C          C       0.28288   0.40013   0.00652   0.0000000000
C          C       0.28978   0.42245   0.98525   0.0000000000
C          C       0.31410   0.44189   0.98992   0.0000000000
C          C       0.33180   0.43925   0.01597   0.0000000000
C          C       0.32478   0.41706   0.03735   0.0000000000
H          H       0.52270   0.57869   0.07320   0.0000000000
H          H       0.46763   0.48536   0.09886   0.0000000000
H          H       0.29522   0.38106   0.04972   0.0000000000
H          H       0.33803   0.41471   0.05772   0.0000000000
H          H       0.27632   0.42482   0.96503   0.0000000000
H          H       0.31904   0.45892   0.97314   0.0000000000
B          B       0.35906   0.46095   0.02123   0.0000000000
O          O       0.51434   0.50077   0.13328   0.0000000000
O          O       0.45284   0.62069   0.95851   0.0000000000
C          C       0.53219   0.97645   0.06665   0.0000000000
C          C       0.51523   0.95018   0.05826   0.0000000000
C          C       0.49739   0.98455   0.10834   0.0000000000
C          C       0.48222   0.95882   0.10127   0.0000000000
C          C       0.49042   0.94137   0.07672   0.0000000000
C          C       0.52213   0.99387   0.09174   0.0000000000
C          C       0.69965   0.10228   0.03272   0.0000000000
C          C       0.71712   0.09987   0.00652   0.0000000000
C          C       0.71022   0.07755   0.98525   0.0000000000
C          C       0.68590   0.05811   0.98992   0.0000000000
C          C       0.66820   0.06075   0.01597   0.0000000000
C          C       0.67522   0.08294   0.03735   0.0000000000
H          H       0.47730   0.92131   0.07320   0.0000000000
H          H       0.53237   0.01464   0.09886   0.0000000000
H          H       0.70478   0.11894   0.04972   0.0000000000
H          H       0.66197   0.08529   0.05772   0.0000000000
H          H       0.72368   0.07518   0.96503   0.0000000000
H          H       0.68096   0.04108   0.97314   0.0000000000
B          B       0.64094   0.03905   0.02123   0.0000000000
O          O       0.48566   0.99923   0.13328   0.0000000000
O          O       0.54716   0.87931   0.95851   0.0000000000
C          C       0.03219   0.47645   0.56665   0.0000000000
C          C       0.01523   0.45018   0.55826   0.0000000000
C          C       0.99739   0.48455   0.60834   0.0000000000
C          C       0.98222   0.45882   0.60127   0.0000000000
C          C       0.99042   0.44137   0.57672   0.0000000000
C          C       0.02213   0.49387   0.59174   0.0000000000
C          C       0.19965   0.60228   0.53272   0.0000000000
C          C       0.21712   0.59987   0.50652   0.0000000000
C          C       0.21022   0.57755   0.48525   0.0000000000
C          C       0.18590   0.55811   0.48992   0.0000000000
C          C       0.16820   0.56075   0.51597   0.0000000000
C          C       0.17522   0.58294   0.53735   0.0000000000
H          H       0.97730   0.42131   0.57320   0.0000000000
H          H       0.03237   0.51464   0.59886   0.0000000000
H          H       0.20478   0.61894   0.54972   0.0000000000
H          H       0.16197   0.58529   0.55772   0.0000000000
H          H       0.22368   0.57518   0.46503   0.0000000000
H          H       0.18096   0.54108   0.47314   0.0000000000
B          B       0.14094   0.53905   0.52123   0.0000000000
O          O       0.98566   0.49923   0.63328   0.0000000000
O          O       0.04716   0.37931   0.45851   0.0000000000
C          C       0.47645   0.43335   0.46781   0.0000000000
C          C       0.45018   0.44174   0.48477   0.0000000000
C          C       0.48455   0.39166   0.50261   0.0000000000
C          C       0.45882   0.39873   0.51778   0.0000000000
C          C       0.44137   0.42328   0.50958   0.0000000000
C          C       0.49387   0.40826   0.47787   0.0000000000
C          C       0.60228   0.46728   0.30035   0.0000000000
C          C       0.59987   0.49348   0.28288   0.0000000000
C          C       0.57755   0.51475   0.28978   0.0000000000
C          C       0.55811   0.51008   0.31410   0.0000000000
C          C       0.56075   0.48403   0.33180   0.0000000000
C          C       0.58294   0.46265   0.32478   0.0000000000
H          H       0.42131   0.42680   0.52270   0.0000000000
H          H       0.51464   0.40114   0.46763   0.0000000000
H          H       0.61894   0.45028   0.29522   0.0000000000
H          H       0.58529   0.44228   0.33803   0.0000000000
H          H       0.57518   0.53497   0.27632   0.0000000000
H          H       0.54108   0.52686   0.31904   0.0000000000
B          B       0.53905   0.47877   0.35906   0.0000000000
O          O       0.49923   0.36672   0.51434   0.0000000000
O          O       0.37931   0.54149   0.45284   0.0000000000
C          C       0.97645   0.93335   0.96781   0.0000000000
C          C       0.95018   0.94174   0.98477   0.0000000000
C          C       0.98455   0.89166   0.00261   0.0000000000
C          C       0.95882   0.89873   0.01778   0.0000000000
C          C       0.94137   0.92328   0.00958   0.0000000000
C          C       0.99387   0.90826   0.97787   0.0000000000
C          C       0.10228   0.96728   0.80035   0.0000000000
C          C       0.09987   0.99348   0.78288   0.0000000000
C          C       0.07755   0.01475   0.78978   0.0000000000
C          C       0.05811   0.01008   0.81410   0.0000000000
C          C       0.06075   0.98403   0.83180   0.0000000000
C          C       0.08294   0.96265   0.82478   0.0000000000
H          H       0.92131   0.92680   0.02270   0.0000000000
H          H       0.01464   0.90114   0.96763   0.0000000000
H          H       0.11894   0.95028   0.79522   0.0000000000
H          H       0.08529   0.94228   0.83803   0.0000000000
H          H       0.07518   0.03497   0.77632   0.0000000000
H          H       0.04108   0.02686   0.81904   0.0000000000
B          B       0.03905   0.97877   0.85906   0.0000000000
O          O       0.99923   0.86672   0.01434   0.0000000000
O          O       0.87931   0.04149   0.95284   0.0000000000
C          C       0.52355   0.93335   0.03219   0.0000000000
C          C       0.54982   0.94174   0.01523   0.0000000000
C          C       0.51545   0.89166   0.99739   0.0000000000
C          C       0.54118   0.89873   0.98222   0.0000000000
C          C       0.55863   0.92328   0.99042   0.0000000000
C          C       0.50613   0.90826   0.02213   0.0000000000
C          C       0.39772   0.96728   0.19965   0.0000000000
C          C       0.40013   0.99348   0.21712   0.0000000000
C          C       0.42245   0.01475   0.21022   0.0000000000
C          C       0.44189   0.01008   0.18590   0.0000000000
C          C       0.43925   0.98403   0.16820   0.0000000000
C          C       0.41706   0.96265   0.17522   0.0000000000
H          H       0.57869   0.92680   0.97730   0.0000000000
H          H       0.48536   0.90114   0.03237   0.0000000000
H          H       0.38106   0.95028   0.20478   0.0000000000
H          H       0.41471   0.94228   0.16197   0.0000000000
H          H       0.42482   0.03497   0.22368   0.0000000000
H          H       0.45892   0.02686   0.18096   0.0000000000
B          B       0.46095   0.97877   0.14094   0.0000000000
O          O       0.50077   0.86672   0.98566   0.0000000000
O          O       0.62069   0.04149   0.04716   0.0000000000
C          C       0.02355   0.43335   0.53219   0.0000000000
C          C       0.04982   0.44174   0.51523   0.0000000000
C          C       0.01545   0.39166   0.49739   0.0000000000
C          C       0.04118   0.39873   0.48222   0.0000000000
C          C       0.05863   0.42328   0.49042   0.0000000000
C          C       0.00613   0.40826   0.52213   0.0000000000
C          C       0.89772   0.46728   0.69965   0.0000000000
C          C       0.90013   0.49348   0.71712   0.0000000000
C          C       0.92245   0.51475   0.71022   0.0000000000
C          C       0.94189   0.51008   0.68590   0.0000000000
C          C       0.93925   0.48403   0.66820   0.0000000000
C          C       0.91706   0.46265   0.67522   0.0000000000
H          H       0.07869   0.42680   0.47730   0.0000000000
H          H       0.98536   0.40114   0.53237   0.0000000000
H          H       0.88106   0.45028   0.70478   0.0000000000
H          H       0.91471   0.44228   0.66197   0.0000000000
H          H       0.92482   0.53497   0.72368   0.0000000000
H          H       0.95892   0.52686   0.68096   0.0000000000
B          B       0.96095   0.47877   0.64094   0.0000000000
O          O       0.00077   0.36672   0.48566   0.0000000000
O          O       0.12069   0.54149   0.54716   0.0000000000
C          C       0.02355   0.56665   0.96781   0.0000000000
C          C       0.04982   0.55826   0.98477   0.0000000000
C          C       0.01545   0.60834   0.00261   0.0000000000
C          C       0.04118   0.60127   0.01778   0.0000000000
C          C       0.05863   0.57672   0.00958   0.0000000000
C          C       0.00613   0.59174   0.97787   0.0000000000
C          C       0.89772   0.53272   0.80035   0.0000000000
C          C       0.90013   0.50652   0.78288   0.0000000000
C          C       0.92245   0.48525   0.78978   0.0000000000
C          C       0.94189   0.48992   0.81410   0.0000000000
C          C       0.93925   0.51597   0.83180   0.0000000000
C          C       0.91706   0.53735   0.82478   0.0000000000
H          H       0.07869   0.57320   0.02270   0.0000000000
H          H       0.98536   0.59886   0.96763   0.0000000000
H          H       0.88106   0.54972   0.79522   0.0000000000
H          H       0.91471   0.55772   0.83803   0.0000000000
H          H       0.92482   0.46503   0.77632   0.0000000000
H          H       0.95892   0.47314   0.81904   0.0000000000
B          B       0.96095   0.52123   0.85906   0.0000000000
O          O       0.00077   0.63328   0.01434   0.0000000000
O          O       0.12069   0.45851   0.95284   0.0000000000
C          C       0.52355   0.06665   0.46781   0.0000000000
C          C       0.54982   0.05826   0.48477   0.0000000000
C          C       0.51545   0.10834   0.50261   0.0000000000
C          C       0.54118   0.10127   0.51778   0.0000000000
C          C       0.55863   0.07672   0.50958   0.0000000000
C          C       0.50613   0.09174   0.47787   0.0000000000
C          C       0.39772   0.03272   0.30035   0.0000000000
C          C       0.40013   0.00652   0.28288   0.0000000000
C          C       0.42245   0.98525   0.28978   0.0000000000
C          C       0.44189   0.98992   0.31410   0.0000000000
C          C       0.43925   0.01597   0.33180   0.0000000000
C          C       0.41706   0.03735   0.32478   0.0000000000
H          H       0.57869   0.07320   0.52270   0.0000000000
H          H       0.48536   0.09886   0.46763   0.0000000000
H          H       0.38106   0.04972   0.29522   0.0000000000
H          H       0.41471   0.05772   0.33803   0.0000000000
H          H       0.42482   0.96503   0.27632   0.0000000000
H          H       0.45892   0.97314   0.31904   0.0000000000
B          B       0.46095   0.02123   0.35906   0.0000000000
O          O       0.50077   0.13328   0.51434   0.0000000000
O          O       0.62069   0.95851   0.45284   0.0000000000
C          C       0.97645   0.06665   0.53219   0.0000000000
C          C       0.95018   0.05826   0.51523   0.0000000000
C          C       0.98455   0.10834   0.49739   0.0000000000
C          C       0.95882   0.10127   0.48222   0.0000000000
C          C       0.94137   0.07672   0.49042   0.0000000000
C          C       0.99387   0.09174   0.52213   0.0000000000
C          C       0.10228   0.03272   0.69965   0.0000000000
C          C       0.09987   0.00652   0.71712   0.0000000000
C          C       0.07755   0.98525   0.71022   0.0000000000
C          C       0.05811   0.98992   0.68590   0.0000000000
C          C       0.06075   0.01597   0.66820   0.0000000000
C          C       0.08294   0.03735   0.67522   0.0000000000
H          H       0.92131   0.07320   0.47730   0.0000000000
H          H       0.01464   0.09886   0.53237   0.0000000000
H          H       0.11894   0.04972   0.70478   0.0000000000
H          H       0.08529   0.05772   0.66197   0.0000000000
H          H       0.07518   0.96503   0.72368   0.0000000000
H          H       0.04108   0.97314   0.68096   0.0000000000
B          B       0.03905   0.02123   0.64094   0.0000000000
O          O       0.99923   0.13328   0.48566   0.0000000000
O          O       0.87931   0.95851   0.54716   0.0000000000
C          C       0.47645   0.56665   0.03219   0.0000000000
C          C       0.45018   0.55826   0.01523   0.0000000000
C          C       0.48455   0.60834   0.99739   0.0000000000
C          C       0.45882   0.60127   0.98222   0.0000000000
C          C       0.44137   0.57672   0.99042   0.0000000000
C          C       0.49387   0.59174   0.02213   0.0000000000
C          C       0.60228   0.53272   0.19965   0.0000000000
C          C       0.59987   0.50652   0.21712   0.0000000000
C          C       0.57755   0.48525   0.21022   0.0000000000
C          C       0.55811   0.48992   0.18590   0.0000000000
C          C       0.56075   0.51597   0.16820   0.0000000000
C          C       0.58294   0.53735   0.17522   0.0000000000
H          H       0.42131   0.57320   0.97730   0.0000000000
H          H       0.51464   0.59886   0.03237   0.0000000000
H          H       0.61894   0.54972   0.20478   0.0000000000
H          H       0.58529   0.55772   0.16197   0.0000000000
H          H       0.57518   0.46503   0.22368   0.0000000000
H          H       0.54108   0.47314   0.18096   0.0000000000
B          B       0.53905   0.52123   0.14094   0.0000000000
O          O       0.49923   0.63328   0.98566   0.0000000000
O          O       0.37931   0.45851   0.04716   0.0000000000
C          C       0.43335   0.46781   0.47645   0.0000000000
C          C       0.44174   0.48477   0.45018   0.0000000000
C          C       0.39166   0.50261   0.48455   0.0000000000
C          C       0.39873   0.51778   0.45882   0.0000000000
C          C       0.42328   0.50958   0.44137   0.0000000000
C          C       0.40826   0.47787   0.49387   0.0000000000
C          C       0.46728   0.30035   0.60228   0.0000000000
C          C       0.49348   0.28288   0.59987   0.0000000000
C          C       0.51475   0.28978   0.57755   0.0000000000
C          C       0.51008   0.31410   0.55811   0.0000000000
C          C       0.48403   0.33180   0.56075   0.0000000000
C          C       0.46265   0.32478   0.58294   0.0000000000
H          H       0.42680   0.52270   0.42131   0.0000000000
H          H       0.40114   0.46763   0.51464   0.0000000000
H          H       0.45028   0.29522   0.61894   0.0000000000
H          H       0.44228   0.33803   0.58529   0.0000000000
H          H       0.53497   0.27632   0.57518   0.0000000000
H          H       0.52686   0.31904   0.54108   0.0000000000
B          B       0.47877   0.35906   0.53905   0.0000000000
O          O       0.36672   0.51434   0.49923   0.0000000000
O          O       0.54149   0.45284   0.37931   0.0000000000
C          C       0.93335   0.96781   0.97645   0.0000000000
C          C       0.94174   0.98477   0.95018   0.0000000000
C          C       0.89166   0.00261   0.98455   0.0000000000
C          C       0.89873   0.01778   0.95882   0.0000000000
C          C       0.92328   0.00958   0.94137   0.0000000000
C          C       0.90826   0.97787   0.99387   0.0000000000
C          C       0.96728   0.80035   0.10228   0.0000000000
C          C       0.99348   0.78288   0.09987   0.0000000000
C          C       0.01475   0.78978   0.07755   0.0000000000
C          C       0.01008   0.81410   0.05811   0.0000000000
C          C       0.98403   0.83180   0.06075   0.0000000000
C          C       0.96265   0.82478   0.08294   0.0000000000
H          H       0.92680   0.02270   0.92131   0.0000000000
H          H       0.90114   0.96763   0.01464   0.0000000000
H          H       0.95028   0.79522   0.11894   0.0000000000
H          H       0.94228   0.83803   0.08529   0.0000000000
H          H       0.03497   0.77632   0.07518   0.0000000000
H          H       0.02686   0.81904   0.04108   0.0000000000
B          B       0.97877   0.85906   0.03905   0.0000000000
O          O       0.86672   0.01434   0.99923   0.0000000000
O          O       0.04149   0.95284   0.87931   0.0000000000
C          C       0.93335   0.03219   0.52355   0.0000000000
C          C       0.94174   0.01523   0.54982   0.0000000000
C          C       0.89166   0.99739   0.51545   0.0000000000
C          C       0.89873   0.98222   0.54118   0.0000000000
C          C       0.92328   0.99042   0.55863   0.0000000000
C          C       0.90826   0.02213   0.50613   0.0000000000
C          C       0.96728   0.19965   0.39772   0.0000000000
C          C       0.99348   0.21712   0.40013   0.0000000000
C          C       0.01475   0.21022   0.42245   0.0000000000
C          C       0.01008   0.18590   0.44189   0.0000000000
C          C       0.98403   0.16820   0.43925   0.0000000000
C          C       0.96265   0.17522   0.41706   0.0000000000
H          H       0.92680   0.97730   0.57869   0.0000000000
H          H       0.90114   0.03237   0.48536   0.0000000000
H          H       0.95028   0.20478   0.38106   0.0000000000
H          H       0.94228   0.16197   0.41471   0.0000000000
H          H       0.03497   0.22368   0.42482   0.0000000000
H          H       0.02686   0.18096   0.45892   0.0000000000
B          B       0.97877   0.14094   0.46095   0.0000000000
O          O       0.86672   0.98566   0.50077   0.0000000000
O          O       0.04149   0.04716   0.62069   0.0000000000
C          C       0.43335   0.53219   0.02355   0.0000000000
C          C       0.44174   0.51523   0.04982   0.0000000000
C          C       0.39166   0.49739   0.01545   0.0000000000
C          C       0.39873   0.48222   0.04118   0.0000000000
C          C       0.42328   0.49042   0.05863   0.0000000000
C          C       0.40826   0.52213   0.00613   0.0000000000
C          C       0.46728   0.69965   0.89772   0.0000000000
C          C       0.49348   0.71712   0.90013   0.0000000000
C          C       0.51475   0.71022   0.92245   0.0000000000
C          C       0.51008   0.68590   0.94189   0.0000000000
C          C       0.48403   0.66820   0.93925   0.0000000000
C          C       0.46265   0.67522   0.91706   0.0000000000
H          H       0.42680   0.47730   0.07869   0.0000000000
H          H       0.40114   0.53237   0.98536   0.0000000000
H          H       0.45028   0.70478   0.88106   0.0000000000
H          H       0.44228   0.66197   0.91471   0.0000000000
H          H       0.53497   0.72368   0.92482   0.0000000000
H          H       0.52686   0.68096   0.95892   0.0000000000
B          B       0.47877   0.64094   0.96095   0.0000000000
O          O       0.36672   0.48566   0.00077   0.0000000000
O          O       0.54149   0.54716   0.12069   0.0000000000
C          C       0.56665   0.96781   0.02355   0.0000000000
C          C       0.55826   0.98477   0.04982   0.0000000000
C          C       0.60834   0.00261   0.01545   0.0000000000
C          C       0.60127   0.01778   0.04118   0.0000000000
C          C       0.57672   0.00958   0.05863   0.0000000000
C          C       0.59174   0.97787   0.00613   0.0000000000
C          C       0.53272   0.80035   0.89772   0.0000000000
C          C       0.50652   0.78288   0.90013   0.0000000000
C          C       0.48525   0.78978   0.92245   0.0000000000
C          C       0.48992   0.81410   0.94189   0.0000000000
C          C       0.51597   0.83180   0.93925   0.0000000000
C          C       0.53735   0.82478   0.91706   0.0000000000
H          H       0.57320   0.02270   0.07869   0.0000000000
H          H       0.59886   0.96763   0.98536   0.0000000000
H          H       0.54972   0.79522   0.88106   0.0000000000
H          H       0.55772   0.83803   0.91471   0.0000000000
H          H       0.46503   0.77632   0.92482   0.0000000000
H          H       0.47314   0.81904   0.95892   0.0000000000
B          B       0.52123   0.85906   0.96095   0.0000000000
O          O       0.63328   0.01434   0.00077   0.0000000000
O          O       0.45851   0.95284   0.12069   0.0000000000
C          C       0.06665   0.46781   0.52355   0.0000000000
C          C       0.05826   0.48477   0.54982   0.0000000000
C          C       0.10834   0.50261   0.51545   0.0000000000
C          C       0.10127   0.51778   0.54118   0.0000000000
C          C       0.07672   0.50958   0.55863   0.0000000000
C          C       0.09174   0.47787   0.50613   0.0000000000
C          C       0.03272   0.30035   0.39772   0.0000000000
C          C       0.00652   0.28288   0.40013   0.0000000000
C          C       0.98525   0.28978   0.42245   0.0000000000
C          C       0.98992   0.31410   0.44189   0.0000000000
C          C       0.01597   0.33180   0.43925   0.0000000000
C          C       0.03735   0.32478   0.41706   0.0000000000
H          H       0.07320   0.52270   0.57869   0.0000000000
H          H       0.09886   0.46763   0.48536   0.0000000000
H          H       0.04972   0.29522   0.38106   0.0000000000
H          H       0.05772   0.33803   0.41471   0.0000000000
H          H       0.96503   0.27632   0.42482   0.0000000000
H          H       0.97314   0.31904   0.45892   0.0000000000
B          B       0.02123   0.35906   0.46095   0.0000000000
O          O       0.13328   0.51434   0.50077   0.0000000000
O          O       0.95851   0.45284   0.62069   0.0000000000
C          C       0.06665   0.53219   0.97645   0.0000000000
C          C       0.05826   0.51523   0.95018   0.0000000000
C          C       0.10834   0.49739   0.98455   0.0000000000
C          C       0.10127   0.48222   0.95882   0.0000000000
C          C       0.07672   0.49042   0.94137   0.0000000000
C          C       0.09174   0.52213   0.99387   0.0000000000
C          C       0.03272   0.69965   0.10228   0.0000000000
C          C       0.00652   0.71712   0.09987   0.0000000000
C          C       0.98525   0.71022   0.07755   0.0000000000
C          C       0.98992   0.68590   0.05811   0.0000000000
C          C       0.01597   0.66820   0.06075   0.0000000000
C          C       0.03735   0.67522   0.08294   0.0000000000
H          H       0.07320   0.47730   0.92131   0.0000000000
H          H       0.09886   0.53237   0.01464   0.0000000000
H          H       0.04972   0.70478   0.11894   0.0000000000
H          H       0.05772   0.66197   0.08529   0.0000000000
H          H       0.96503   0.72368   0.07518   0.0000000000
H          H       0.97314   0.68096   0.04108   0.0000000000
B          B       0.02123   0.64094   0.03905   0.0000000000
O          O       0.13328   0.48566   0.99923   0.0000000000
O          O       0.95851   0.54716   0.87931   0.0000000000
C          C       0.56665   0.03219   0.47645   0.0000000000
C          C       0.55826   0.01523   0.45018   0.0000000000
C          C       0.60834   0.99739   0.48455   0.0000000000
C          C       0.60127   0.98222   0.45882   0.0000000000
C          C       0.57672   0.99042   0.44137   0.0000000000
C          C       0.59174   0.02213   0.49387   0.0000000000
C          C       0.53272   0.19965   0.60228   0.0000000000
C          C       0.50652   0.21712   0.59987   0.0000000000
C          C       0.48525   0.21022   0.57755   0.0000000000
C          C       0.48992   0.18590   0.55811   0.0000000000
C          C       0.51597   0.16820   0.56075   0.0000000000
C          C       0.53735   0.17522   0.58294   0.0000000000
H          H       0.57320   0.97730   0.42131   0.0000000000
H          H       0.59886   0.03237   0.51464   0.0000000000
H          H       0.54972   0.20478   0.61894   0.0000000000
H          H       0.55772   0.16197   0.58529   0.0000000000
H          H       0.46503   0.22368   0.57518   0.0000000000
H          H       0.47314   0.18096   0.54108   0.0000000000
B          B       0.52123   0.14094   0.53905   0.0000000000
O          O       0.63328   0.98566   0.49923   0.0000000000
O          O       0.45851   0.04716   0.37931   0.0000000000
Si         Si      0.37500   0.00000   0.25000   0.0000000000
Si         Si      0.12500   0.00000   0.75000   0.0000000000
Si         Si      0.62500   0.50000   0.25000   0.0000000000
Si         Si      0.87500   0.50000   0.75000   0.0000000000
Si         Si      0.25000   0.37500   0.00000   0.0000000000
Si         Si      0.75000   0.12500   0.00000   0.0000000000
Si         Si      0.25000   0.62500   0.50000   0.0000000000
Si         Si      0.75000   0.87500   0.50000   0.0000000000
Si         Si      0.00000   0.25000   0.37500   0.0000000000
Si         Si      0.00000   0.75000   0.12500   0.0000000000
Si         Si      0.50000   0.25000   0.62500   0.0000000000
Si         Si      0.50000   0.75000   0.87500   0.0000000000
