data_COF-108
_audit_creation_date              0000-00-00
_audit_creation_method            'LanYouShi'
_symmetry_space_group_name_H-M    'P1'
_cell_length_a                    28.4009991
_cell_length_b                    28.4009991
_cell_length_c                    28.4009991
_cell_angle_alpha                 90.0000000
_cell_angle_beta                  90.0000000
_cell_angle_gamma                 90.0000000
loop_
_atom_site_label
_atom_site_type_symbol
_atom_site_fract_x
_atom_site_fract_y
_atom_site_fract_z
_atom_site_U_iso_or_equiv
_atom_site_adp_type
_atom_site_occupancy
        C1          C  0.5888400  0.9047300  0.0352800    0.00000       Uiso       1.00
        C2          C  0.5530900  0.9286100  0.0113500    0.00000       Uiso       1.00
        C3          C  0.7769100  0.8124300  0.1518000    0.00000       Uiso       1.00
        C4          C  0.7072600  0.8489300  0.1172200    0.00000       Uiso       1.00
        H1          H  0.7380000  0.7882000  0.0883900    0.00000       Uiso       1.00
        O1          O  0.6714300  0.8545600  0.0845700    0.00000       Uiso       1.00
        H2          H  0.5419600  0.9146800  0.9777500    0.00000       Uiso       1.00
        C5          C  0.7410100  0.8137300  0.1166300    0.00000       Uiso       1.00
        H3          H  0.3968248  0.0202298  0.1296090    0.00000       Uiso       1.00
        C6          C  0.4111600  0.0952700  0.0352800    0.00000       Uiso       1.00
        C7          C  0.4469100  0.0713900  0.0113500    0.00000       Uiso       1.00
        C8          C  0.2230900  0.1875700  0.1518000    0.00000       Uiso       1.00
        C9          C  0.2927400  0.1510700  0.1172200    0.00000       Uiso       1.00
        H4          H  0.2620000  0.2118000  0.0883900    0.00000       Uiso       1.00
        O2          O  0.3285700  0.1454400  0.0845700    0.00000       Uiso       1.00
        H5          H  0.4580400  0.0853200  0.9777500    0.00000       Uiso       1.00
       C10          C  0.2589900  0.1862700  0.1166300    0.00000       Uiso       1.00
        H6          H  0.6031752  0.9797702  0.1296090    0.00000       Uiso       1.00
       C11          C  0.4111600  0.9047300  0.9647200    0.00000       Uiso       1.00
       C12          C  0.4469100  0.9286100  0.9886500    0.00000       Uiso       1.00
       C13          C  0.2230900  0.8124300  0.8482000    0.00000       Uiso       1.00
       C14          C  0.2927400  0.8489300  0.8827800    0.00000       Uiso       1.00
        H7          H  0.2620000  0.7882000  0.9116100    0.00000       Uiso       1.00
        O3          O  0.3285700  0.8545600  0.9154300    0.00000       Uiso       1.00
        H8          H  0.4580400  0.9146800  0.0222500    0.00000       Uiso       1.00
       C15          C  0.2589900  0.8137300  0.8833700    0.00000       Uiso       1.00
        H9          H  0.6031752  0.0202298  0.8703910    0.00000       Uiso       1.00
       C16          C  0.5888400  0.0952700  0.9647200    0.00000       Uiso       1.00
       C17          C  0.5530900  0.0713900  0.9886500    0.00000       Uiso       1.00
       C18          C  0.7769100  0.1875700  0.8482000    0.00000       Uiso       1.00
       C19          C  0.7072600  0.1510700  0.8827800    0.00000       Uiso       1.00
       H10          H  0.7380000  0.2118000  0.9116100    0.00000       Uiso       1.00
        O4          O  0.6714300  0.1454400  0.9154300    0.00000       Uiso       1.00
       H11          H  0.5419600  0.0853200  0.0222500    0.00000       Uiso       1.00
       C20          C  0.7410100  0.1862700  0.8833700    0.00000       Uiso       1.00
       H12          H  0.3968248  0.9797702  0.8703910    0.00000       Uiso       1.00
       C21          C  0.0352800  0.5888400  0.9047300    0.00000       Uiso       1.00
       C22          C  0.0113500  0.5530900  0.9286100    0.00000       Uiso       1.00
       C23          C  0.1518000  0.7769100  0.8124300    0.00000       Uiso       1.00
       C24          C  0.1172200  0.7072600  0.8489300    0.00000       Uiso       1.00
       H13          H  0.0883900  0.7380000  0.7882000    0.00000       Uiso       1.00
        O5          O  0.0845700  0.6714300  0.8545600    0.00000       Uiso       1.00
       H14          H  0.9777500  0.5419600  0.9146800    0.00000       Uiso       1.00
       C25          C  0.1166300  0.7410100  0.8137300    0.00000       Uiso       1.00
       H15          H  0.1296090  0.3968248  0.0202298    0.00000       Uiso       1.00
       C26          C  0.0352800  0.4111600  0.0952700    0.00000       Uiso       1.00
       C27          C  0.0113500  0.4469100  0.0713900    0.00000       Uiso       1.00
       C28          C  0.1518000  0.2230900  0.1875700    0.00000       Uiso       1.00
       C29          C  0.1172200  0.2927400  0.1510700    0.00000       Uiso       1.00
       H16          H  0.0883900  0.2620000  0.2118000    0.00000       Uiso       1.00
        O6          O  0.0845700  0.3285700  0.1454400    0.00000       Uiso       1.00
       H17          H  0.9777500  0.4580400  0.0853200    0.00000       Uiso       1.00
       C30          C  0.1166300  0.2589900  0.1862700    0.00000       Uiso       1.00
       H18          H  0.1296090  0.6031752  0.9797702    0.00000       Uiso       1.00
       C31          C  0.9647200  0.4111600  0.9047300    0.00000       Uiso       1.00
       C32          C  0.9886500  0.4469100  0.9286100    0.00000       Uiso       1.00
       C33          C  0.8482000  0.2230900  0.8124300    0.00000       Uiso       1.00
       C34          C  0.8827800  0.2927400  0.8489300    0.00000       Uiso       1.00
       H19          H  0.9116100  0.2620000  0.7882000    0.00000       Uiso       1.00
        O7          O  0.9154300  0.3285700  0.8545600    0.00000       Uiso       1.00
       H20          H  0.0222500  0.4580400  0.9146800    0.00000       Uiso       1.00
       C35          C  0.8833700  0.2589900  0.8137300    0.00000       Uiso       1.00
       H21          H  0.8703910  0.6031752  0.0202298    0.00000       Uiso       1.00
       C36          C  0.9647200  0.5888400  0.0952700    0.00000       Uiso       1.00
       C37          C  0.9886500  0.5530900  0.0713900    0.00000       Uiso       1.00
       C38          C  0.8482000  0.7769100  0.1875700    0.00000       Uiso       1.00
       C39          C  0.8827800  0.7072600  0.1510700    0.00000       Uiso       1.00
       H22          H  0.9116100  0.7380000  0.2118000    0.00000       Uiso       1.00
        O8          O  0.9154300  0.6714300  0.1454400    0.00000       Uiso       1.00
       H23          H  0.0222500  0.5419600  0.0853200    0.00000       Uiso       1.00
       C40          C  0.8833700  0.7410100  0.1862700    0.00000       Uiso       1.00
       H24          H  0.8703910  0.3968248  0.9797702    0.00000       Uiso       1.00
       C41          C  0.9047300  0.0352800  0.5888400    0.00000       Uiso       1.00
       C42          C  0.9286100  0.0113500  0.5530900    0.00000       Uiso       1.00
       C43          C  0.8124300  0.1518000  0.7769100    0.00000       Uiso       1.00
       C44          C  0.8489300  0.1172200  0.7072600    0.00000       Uiso       1.00
       H25          H  0.7882000  0.0883900  0.7380000    0.00000       Uiso       1.00
        O9          O  0.8545600  0.0845700  0.6714300    0.00000       Uiso       1.00
       H26          H  0.9146800  0.9777500  0.5419600    0.00000       Uiso       1.00
       C45          C  0.8137300  0.1166300  0.7410100    0.00000       Uiso       1.00
       H27          H  0.0202298  0.1296090  0.3968248    0.00000       Uiso       1.00
       C46          C  0.0952700  0.0352800  0.4111600    0.00000       Uiso       1.00
       C47          C  0.0713900  0.0113500  0.4469100    0.00000       Uiso       1.00
       C48          C  0.1875700  0.1518000  0.2230900    0.00000       Uiso       1.00
       C49          C  0.1510700  0.1172200  0.2927400    0.00000       Uiso       1.00
       H28          H  0.2118000  0.0883900  0.2620000    0.00000       Uiso       1.00
       O10          O  0.1454400  0.0845700  0.3285700    0.00000       Uiso       1.00
       H29          H  0.0853200  0.9777500  0.4580400    0.00000       Uiso       1.00
       C50          C  0.1862700  0.1166300  0.2589900    0.00000       Uiso       1.00
       H30          H  0.9797702  0.1296090  0.6031752    0.00000       Uiso       1.00
       C51          C  0.9047300  0.9647200  0.4111600    0.00000       Uiso       1.00
       C52          C  0.9286100  0.9886500  0.4469100    0.00000       Uiso       1.00
       C53          C  0.8124300  0.8482000  0.2230900    0.00000       Uiso       1.00
       C54          C  0.8489300  0.8827800  0.2927400    0.00000       Uiso       1.00
       H31          H  0.7882000  0.9116100  0.2620000    0.00000       Uiso       1.00
       O11          O  0.8545600  0.9154300  0.3285700    0.00000       Uiso       1.00
       H32          H  0.9146800  0.0222500  0.4580400    0.00000       Uiso       1.00
       C55          C  0.8137300  0.8833700  0.2589900    0.00000       Uiso       1.00
       H33          H  0.0202298  0.8703910  0.6031752    0.00000       Uiso       1.00
       C56          C  0.0952700  0.9647200  0.5888400    0.00000       Uiso       1.00
       C57          C  0.0713900  0.9886500  0.5530900    0.00000       Uiso       1.00
       C58          C  0.1875700  0.8482000  0.7769100    0.00000       Uiso       1.00
       C59          C  0.1510700  0.8827800  0.7072600    0.00000       Uiso       1.00
       H34          H  0.2118000  0.9116100  0.7380000    0.00000       Uiso       1.00
       O12          O  0.1454400  0.9154300  0.6714300    0.00000       Uiso       1.00
       H35          H  0.0853200  0.0222500  0.5419600    0.00000       Uiso       1.00
       C60          C  0.1862700  0.8833700  0.7410100    0.00000       Uiso       1.00
       H36          H  0.9797702  0.8703910  0.3968248    0.00000       Uiso       1.00
       C61          C  0.9047300  0.5888400  0.0352800    0.00000       Uiso       1.00
       C62          C  0.9286100  0.5530900  0.0113500    0.00000       Uiso       1.00
       C63          C  0.8124300  0.7769100  0.1518000    0.00000       Uiso       1.00
       C64          C  0.8489300  0.7072600  0.1172200    0.00000       Uiso       1.00
       H37          H  0.7882000  0.7380000  0.0883900    0.00000       Uiso       1.00
       O13          O  0.8545600  0.6714300  0.0845700    0.00000       Uiso       1.00
       H38          H  0.9146800  0.5419600  0.9777500    0.00000       Uiso       1.00
       C65          C  0.8137300  0.7410100  0.1166300    0.00000       Uiso       1.00
       H39          H  0.0202298  0.3968248  0.1296090    0.00000       Uiso       1.00
       C66          C  0.0952700  0.4111600  0.0352800    0.00000       Uiso       1.00
       C67          C  0.0713900  0.4469100  0.0113500    0.00000       Uiso       1.00
       C68          C  0.1875700  0.2230900  0.1518000    0.00000       Uiso       1.00
       C69          C  0.1510700  0.2927400  0.1172200    0.00000       Uiso       1.00
       H40          H  0.2118000  0.2620000  0.0883900    0.00000       Uiso       1.00
       O14          O  0.1454400  0.3285700  0.0845700    0.00000       Uiso       1.00
       H41          H  0.0853200  0.4580400  0.9777500    0.00000       Uiso       1.00
       C70          C  0.1862700  0.2589900  0.1166300    0.00000       Uiso       1.00
       H42          H  0.9797702  0.6031752  0.1296090    0.00000       Uiso       1.00
       C71          C  0.9047300  0.4111600  0.9647200    0.00000       Uiso       1.00
       C72          C  0.9286100  0.4469100  0.9886500    0.00000       Uiso       1.00
       C73          C  0.8124300  0.2230900  0.8482000    0.00000       Uiso       1.00
       C74          C  0.8489300  0.2927400  0.8827800    0.00000       Uiso       1.00
       H43          H  0.7882000  0.2620000  0.9116100    0.00000       Uiso       1.00
       O15          O  0.8545600  0.3285700  0.9154300    0.00000       Uiso       1.00
       H44          H  0.9146800  0.4580400  0.0222500    0.00000       Uiso       1.00
       C75          C  0.8137300  0.2589900  0.8833700    0.00000       Uiso       1.00
       H45          H  0.0202298  0.6031752  0.8703910    0.00000       Uiso       1.00
       C76          C  0.0952700  0.5888400  0.9647200    0.00000       Uiso       1.00
       C77          C  0.0713900  0.5530900  0.9886500    0.00000       Uiso       1.00
       C78          C  0.1875700  0.7769100  0.8482000    0.00000       Uiso       1.00
       C79          C  0.1510700  0.7072600  0.8827800    0.00000       Uiso       1.00
       H46          H  0.2118000  0.7380000  0.9116100    0.00000       Uiso       1.00
       O16          O  0.1454400  0.6714300  0.9154300    0.00000       Uiso       1.00
       H47          H  0.0853200  0.5419600  0.0222500    0.00000       Uiso       1.00
       C80          C  0.1862700  0.7410100  0.8833700    0.00000       Uiso       1.00
       H48          H  0.9797702  0.3968248  0.8703910    0.00000       Uiso       1.00
       C81          C  0.5888400  0.0352800  0.9047300    0.00000       Uiso       1.00
       C82          C  0.5530900  0.0113500  0.9286100    0.00000       Uiso       1.00
       C83          C  0.7769100  0.1518000  0.8124300    0.00000       Uiso       1.00
       C84          C  0.7072600  0.1172200  0.8489300    0.00000       Uiso       1.00
       H49          H  0.7380000  0.0883900  0.7882000    0.00000       Uiso       1.00
       O17          O  0.6714300  0.0845700  0.8545600    0.00000       Uiso       1.00
       H50          H  0.5419600  0.9777500  0.9146800    0.00000       Uiso       1.00
       C85          C  0.7410100  0.1166300  0.8137300    0.00000       Uiso       1.00
       H51          H  0.3968248  0.1296090  0.0202298    0.00000       Uiso       1.00
       C86          C  0.4111600  0.0352800  0.0952700    0.00000       Uiso       1.00
       C87          C  0.4469100  0.0113500  0.0713900    0.00000       Uiso       1.00
       C88          C  0.2230900  0.1518000  0.1875700    0.00000       Uiso       1.00
       C89          C  0.2927400  0.1172200  0.1510700    0.00000       Uiso       1.00
       H52          H  0.2620000  0.0883900  0.2118000    0.00000       Uiso       1.00
       O18          O  0.3285700  0.0845700  0.1454400    0.00000       Uiso       1.00
       H53          H  0.4580400  0.9777500  0.0853200    0.00000       Uiso       1.00
       C90          C  0.2589900  0.1166300  0.1862700    0.00000       Uiso       1.00
       H54          H  0.6031752  0.1296090  0.9797702    0.00000       Uiso       1.00
       C91          C  0.4111600  0.9647200  0.9047300    0.00000       Uiso       1.00
       C92          C  0.4469100  0.9886500  0.9286100    0.00000       Uiso       1.00
       C93          C  0.2230900  0.8482000  0.8124300    0.00000       Uiso       1.00
       C94          C  0.2927400  0.8827800  0.8489300    0.00000       Uiso       1.00
       H55          H  0.2620000  0.9116100  0.7882000    0.00000       Uiso       1.00
       O19          O  0.3285700  0.9154300  0.8545600    0.00000       Uiso       1.00
       H56          H  0.4580400  0.0222500  0.9146800    0.00000       Uiso       1.00
       C95          C  0.2589900  0.8833700  0.8137300    0.00000       Uiso       1.00
       H57          H  0.6031752  0.8703910  0.0202298    0.00000       Uiso       1.00
       C96          C  0.5888400  0.9647200  0.0952700    0.00000       Uiso       1.00
       C97          C  0.5530900  0.9886500  0.0713900    0.00000       Uiso       1.00
       C98          C  0.7769100  0.8482000  0.1875700    0.00000       Uiso       1.00
       C99          C  0.7072600  0.8827800  0.1510700    0.00000       Uiso       1.00
       H58          H  0.7380000  0.9116100  0.2118000    0.00000       Uiso       1.00
       O20          O  0.6714300  0.9154300  0.1454400    0.00000       Uiso       1.00
       H59          H  0.5419600  0.0222500  0.0853200    0.00000       Uiso       1.00
      C100          C  0.7410100  0.8833700  0.1862700    0.00000       Uiso       1.00
       H60          H  0.3968248  0.8703910  0.9797702    0.00000       Uiso       1.00
      C101          C  0.0352800  0.9047300  0.5888400    0.00000       Uiso       1.00
      C102          C  0.0113500  0.9286100  0.5530900    0.00000       Uiso       1.00
      C103          C  0.1518000  0.8124300  0.7769100    0.00000       Uiso       1.00
      C104          C  0.1172200  0.8489300  0.7072600    0.00000       Uiso       1.00
       H61          H  0.0883900  0.7882000  0.7380000    0.00000       Uiso       1.00
       O21          O  0.0845700  0.8545600  0.6714300    0.00000       Uiso       1.00
       H62          H  0.9777500  0.9146800  0.5419600    0.00000       Uiso       1.00
      C105          C  0.1166300  0.8137300  0.7410100    0.00000       Uiso       1.00
       H63          H  0.1296090  0.0202298  0.3968248    0.00000       Uiso       1.00
      C106          C  0.0352800  0.0952700  0.4111600    0.00000       Uiso       1.00
      C107          C  0.0113500  0.0713900  0.4469100    0.00000       Uiso       1.00
      C108          C  0.1518000  0.1875700  0.2230900    0.00000       Uiso       1.00
      C109          C  0.1172200  0.1510700  0.2927400    0.00000       Uiso       1.00
       H64          H  0.0883900  0.2118000  0.2620000    0.00000       Uiso       1.00
       O22          O  0.0845700  0.1454400  0.3285700    0.00000       Uiso       1.00
       H65          H  0.9777500  0.0853200  0.4580400    0.00000       Uiso       1.00
      C110          C  0.1166300  0.1862700  0.2589900    0.00000       Uiso       1.00
       H66          H  0.1296090  0.9797702  0.6031752    0.00000       Uiso       1.00
      C111          C  0.9647200  0.9047300  0.4111600    0.00000       Uiso       1.00
      C112          C  0.9886500  0.9286100  0.4469100    0.00000       Uiso       1.00
      C113          C  0.8482000  0.8124300  0.2230900    0.00000       Uiso       1.00
      C114          C  0.8827800  0.8489300  0.2927400    0.00000       Uiso       1.00
       H67          H  0.9116100  0.7882000  0.2620000    0.00000       Uiso       1.00
       O23          O  0.9154300  0.8545600  0.3285700    0.00000       Uiso       1.00
       H68          H  0.0222500  0.9146800  0.4580400    0.00000       Uiso       1.00
      C115          C  0.8833700  0.8137300  0.2589900    0.00000       Uiso       1.00
       H69          H  0.8703910  0.0202298  0.6031752    0.00000       Uiso       1.00
      C116          C  0.9647200  0.0952700  0.5888400    0.00000       Uiso       1.00
      C117          C  0.9886500  0.0713900  0.5530900    0.00000       Uiso       1.00
      C118          C  0.8482000  0.1875700  0.7769100    0.00000       Uiso       1.00
      C119          C  0.8827800  0.1510700  0.7072600    0.00000       Uiso       1.00
       H70          H  0.9116100  0.2118000  0.7380000    0.00000       Uiso       1.00
       O24          O  0.9154300  0.1454400  0.6714300    0.00000       Uiso       1.00
       H71          H  0.0222500  0.0853200  0.5419600    0.00000       Uiso       1.00
      C120          C  0.8833700  0.1862700  0.7410100    0.00000       Uiso       1.00
       H72          H  0.8703910  0.9797702  0.3968248    0.00000       Uiso       1.00
        B1          B  0.6488600  0.8971000  0.1029000    0.00000       Uiso       1.00
      C121          C  0.6070200  0.9226400  0.0773600    0.00000       Uiso       1.00
      C122          C  0.5329500  0.9703800  0.0296200    0.00000       Uiso       1.00
        B2          B  0.3511400  0.1029000  0.1029000    0.00000       Uiso       1.00
      C123          C  0.3929800  0.0773600  0.0773600    0.00000       Uiso       1.00
      C124          C  0.4670500  0.0296200  0.0296200    0.00000       Uiso       1.00
        B3          B  0.3511400  0.8971000  0.8971000    0.00000       Uiso       1.00
      C125          C  0.3929800  0.9226400  0.9226400    0.00000       Uiso       1.00
      C126          C  0.4670500  0.9703800  0.9703800    0.00000       Uiso       1.00
        B4          B  0.6488600  0.1029000  0.8971000    0.00000       Uiso       1.00
      C127          C  0.6070200  0.0773600  0.9226400    0.00000       Uiso       1.00
      C128          C  0.5329500  0.0296200  0.9703800    0.00000       Uiso       1.00
        B5          B  0.1029000  0.6488600  0.8971000    0.00000       Uiso       1.00
      C129          C  0.0773600  0.6070200  0.9226400    0.00000       Uiso       1.00
      C130          C  0.0296200  0.5329500  0.9703800    0.00000       Uiso       1.00
        B6          B  0.1029000  0.3511400  0.1029000    0.00000       Uiso       1.00
      C131          C  0.0773600  0.3929800  0.0773600    0.00000       Uiso       1.00
      C132          C  0.0296200  0.4670500  0.0296200    0.00000       Uiso       1.00
        B7          B  0.8971000  0.3511400  0.8971000    0.00000       Uiso       1.00
      C133          C  0.9226400  0.3929800  0.9226400    0.00000       Uiso       1.00
      C134          C  0.9703800  0.4670500  0.9703800    0.00000       Uiso       1.00
        B8          B  0.8971000  0.6488600  0.1029000    0.00000       Uiso       1.00
      C135          C  0.9226400  0.6070200  0.0773600    0.00000       Uiso       1.00
      C136          C  0.9703800  0.5329500  0.0296200    0.00000       Uiso       1.00
        B9          B  0.8971000  0.1029000  0.6488600    0.00000       Uiso       1.00
      C137          C  0.9226400  0.0773600  0.6070200    0.00000       Uiso       1.00
      C138          C  0.9703800  0.0296200  0.5329500    0.00000       Uiso       1.00
       B10          B  0.1029000  0.1029000  0.3511400    0.00000       Uiso       1.00
      C139          C  0.0773600  0.0773600  0.3929800    0.00000       Uiso       1.00
      C140          C  0.0296200  0.0296200  0.4670500    0.00000       Uiso       1.00
       B11          B  0.8971000  0.8971000  0.3511400    0.00000       Uiso       1.00
      C141          C  0.9226400  0.9226400  0.3929800    0.00000       Uiso       1.00
      C142          C  0.9703800  0.9703800  0.4670500    0.00000       Uiso       1.00
       B12          B  0.1029000  0.8971000  0.6488600    0.00000       Uiso       1.00
      C143          C  0.0773600  0.9226400  0.6070200    0.00000       Uiso       1.00
      C144          C  0.0296200  0.9703800  0.5329500    0.00000       Uiso       1.00
      C145          C  0.5000000  0.0000000  0.0000000    0.00000       Uiso       1.00
      C146          C  0.0000000  0.5000000  0.0000000    0.00000       Uiso       1.00
      C147          C  0.0000000  0.0000000  0.5000000    0.00000       Uiso       1.00
