data_COF-18A
_audit_creation_date              0000-00-00
_audit_creation_method            'LanYouShi'
_symmetry_space_group_name_H-M    'P1'
_cell_length_a                    21.4237003
_cell_length_b                    21.4237003
_cell_length_c                    3.5655000
_cell_angle_alpha                 90.0000000
_cell_angle_beta                  90.0000000
_cell_angle_gamma                 120.0000000
loop_
_atom_site_label
_atom_site_type_symbol
_atom_site_fract_x
_atom_site_fract_y
_atom_site_fract_z
_atom_site_U_iso_or_equiv
_atom_site_adp_type
_atom_site_occupancy
        C1          C  0.5671840  0.0000000  0.5000000    0.00000       Uiso       1.00
        C2          C -0.0000000  0.5671840  0.5000000    0.00000       Uiso       1.00
        C3          C  0.4328160  0.4328159  0.5000000    0.00000       Uiso       1.00
        C4          C  0.4328160  0.0000000  0.5000000    0.00000       Uiso       1.00
        C5          C -0.0000000  0.4328159  0.5000000    0.00000       Uiso       1.00
        C6          C  0.5671840  0.5671840  0.5000000    0.00000       Uiso       1.00
        C7          C  0.5650243  0.0644125  0.5000000    0.00000       Uiso       1.00
        C8          C  0.9355875  0.5006118  0.5000000    0.00000       Uiso       1.00
        C9          C  0.4993881  0.4349756  0.5000000    0.00000       Uiso       1.00
       C10          C  0.4349756  0.9355875  0.5000000    0.00000       Uiso       1.00
       C11          C  0.0644125  0.4993881  0.5000000    0.00000       Uiso       1.00
       C12          C  0.5006118  0.5650243  0.5000000    0.00000       Uiso       1.00
       C13          C  0.0644125  0.5650243  0.5000000    0.00000       Uiso       1.00
       C14          C  0.5006118  0.9355875  0.5000000    0.00000       Uiso       1.00
       C15          C  0.4349757  0.4993881  0.5000000    0.00000       Uiso       1.00
       C16          C  0.9355875  0.4349756  0.5000000    0.00000       Uiso       1.00
       C17          C  0.4993882  0.0644125  0.5000000    0.00000       Uiso       1.00
       C18          C  0.5650243  0.5006118  0.5000000    0.00000       Uiso       1.00
        O1          O  0.6212770  0.1321549  0.5000000    0.00000       Uiso       1.00
        O2          O  0.8678451  0.4891221  0.5000000    0.00000       Uiso       1.00
        O3          O  0.5108778  0.3787230  0.5000000    0.00000       Uiso       1.00
        O4          O  0.3787230  0.8678451  0.5000000    0.00000       Uiso       1.00
        O5          O  0.1321549  0.5108778  0.5000000    0.00000       Uiso       1.00
        O6          O  0.4891221  0.6212770  0.5000000    0.00000       Uiso       1.00
        O7          O  0.1321549  0.6212770  0.5000000    0.00000       Uiso       1.00
        O8          O  0.4891221  0.8678451  0.5000000    0.00000       Uiso       1.00
        O9          O  0.3787230  0.5108778  0.5000000    0.00000       Uiso       1.00
       O10          O  0.8678451  0.3787230  0.5000000    0.00000       Uiso       1.00
       O11          O  0.5108778  0.1321549  0.5000000    0.00000       Uiso       1.00
       O12          O  0.6212770  0.4891221  0.5000000    0.00000       Uiso       1.00
       C19          C  0.6284232  0.2568465  0.5000000    0.00000       Uiso       1.00
       C20          C  0.7431535  0.3715768  0.5000000    0.00000       Uiso       1.00
       C21          C  0.6284233  0.3715768  0.5000000    0.00000       Uiso       1.00
       C22          C  0.3715768  0.7431535  0.5000000    0.00000       Uiso       1.00
       C23          C  0.2568465  0.6284232  0.5000000    0.00000       Uiso       1.00
       C24          C  0.3715768  0.6284232  0.5000000    0.00000       Uiso       1.00
        B1          B  0.5882675  0.1765350  0.5000000    0.00000       Uiso       1.00
        B2          B  0.8234650  0.4117325  0.5000000    0.00000       Uiso       1.00
        B3          B  0.5882675  0.4117325  0.5000000    0.00000       Uiso       1.00
        B4          B  0.4117325  0.8234650  0.5000000    0.00000       Uiso       1.00
        B5          B  0.1765350  0.5882674  0.5000000    0.00000       Uiso       1.00
        B6          B  0.4117325  0.5882674  0.5000000    0.00000       Uiso       1.00
       C25          C  0.2954265  0.5908530  0.5000000    0.00000       Uiso       1.00
       C26          C  0.4091469  0.7045735  0.5000000    0.00000       Uiso       1.00
       C27          C  0.2954265  0.7045735  0.5000000    0.00000       Uiso       1.00
       C28          C  0.7045735  0.4091469  0.5000000    0.00000       Uiso       1.00
       C29          C  0.5908531  0.2954265  0.5000000    0.00000       Uiso       1.00
       C30          C  0.7045734  0.2954265  0.5000000    0.00000       Uiso       1.00
        H1          H  0.3852909  0.3852909  0.5000000    0.00000       Uiso       1.00
        H2          H  0.6147091  0.0000000  0.5000000    0.00000       Uiso       1.00
        H3          H -0.0000000  0.6147091  0.5000000    0.00000       Uiso       1.00
        H4          H  0.6147091  0.6147091  0.5000000    0.00000       Uiso       1.00
        H5          H  0.3852909  0.0000000  0.5000000    0.00000       Uiso       1.00
        H6          H  0.0000000  0.3852909  0.5000000    0.00000       Uiso       1.00
        H7          H  0.4647042  0.7323521  0.5000000    0.00000       Uiso       1.00
        H8          H  0.2676479  0.7323521  0.5000000    0.00000       Uiso       1.00
        H9          H  0.2676479  0.5352957  0.5000000    0.00000       Uiso       1.00
       H10          H  0.5352958  0.2676479  0.5000000    0.00000       Uiso       1.00
       H11          H  0.7323521  0.2676479  0.5000000    0.00000       Uiso       1.00
       H12          H  0.7323521  0.4647042  0.5000000    0.00000       Uiso       1.00
