data_crystal
 
_cell_length_a    30.10510
_cell_length_b    30.10510
_cell_length_c    30.10510
_cell_angle_alpha 90.00000
_cell_angle_beta  90.00000
_cell_angle_gamma 90.00000
 
_symmetry_space_group_name_Hall 'P 1'
_symmetry_space_group_name_H-M  'P 1'
 
loop_
_symmetry_equiv_pos_as_xyz
 'x,y,z' 
 
loop_
_atom_site_label
_atom_site_type_symbol
_atom_site_fract_x
_atom_site_fract_y
_atom_site_fract_z
_atom_site_charge
C          C       0.69651   0.60579   0.23320   0.0000000000
C          C       0.65692   0.53943   0.25817   0.0000000000
B          B       0.75303   0.64665   0.28262   0.0000000000
O          O       0.76023   0.67980   0.24744   0.0000000000
C          C       0.68233   0.54069   0.29761   0.0000000000
C          C       0.71962   0.60789   0.27354   0.0000000000
C          C       0.71269   0.57482   0.30550   0.0000000000
O          O       0.77459   0.64915   0.32647   0.0000000000
C          C       0.74457   0.76781   0.18027   0.0000000000
C          C       0.86499   0.58812   0.34551   0.0000000000
H          H       0.72370   0.78885   0.15825   0.0000000000
H          H       0.77961   0.77905   0.17716   0.0000000000
H          H       0.74234   0.73293   0.16833   0.0000000000
H          H       0.88613   0.56612   0.36632   0.0000000000
H          H       0.83089   0.57397   0.34472   0.0000000000
H          H       0.87847   0.58794   0.31114   0.0000000000
H          H       0.67827   0.51519   0.32266   0.0000000000
H          H       0.65059   0.57045   0.19296   0.0000000000
H          H       0.73082   0.57508   0.33659   0.0000000000
H          H       0.70208   0.63031   0.20745   0.0000000000
C          C       0.47743   0.18020   0.58375   0.0000000000
C          C       0.19651   0.10579   0.73320   0.0000000000
C          C       0.15692   0.03943   0.75817   0.0000000000
B          B       0.25303   0.14665   0.78262   0.0000000000
O          O       0.26023   0.17980   0.74744   0.0000000000
C          C       0.18233   0.04069   0.79761   0.0000000000
C          C       0.21962   0.10789   0.77354   0.0000000000
C          C       0.21269   0.07482   0.80550   0.0000000000
O          O       0.27459   0.14915   0.82647   0.0000000000
C          C       0.24457   0.26781   0.68027   0.0000000000
C          C       0.36499   0.08812   0.84551   0.0000000000
H          H       0.22370   0.28885   0.65825   0.0000000000
H          H       0.27961   0.27905   0.67716   0.0000000000
H          H       0.24234   0.23293   0.66833   0.0000000000
H          H       0.38613   0.06612   0.86632   0.0000000000
H          H       0.33089   0.07397   0.84472   0.0000000000
H          H       0.37847   0.08794   0.81114   0.0000000000
H          H       0.17827   0.01519   0.82266   0.0000000000
H          H       0.15059   0.07045   0.69296   0.0000000000
H          H       0.23082   0.07508   0.83659   0.0000000000
H          H       0.20208   0.13031   0.70745   0.0000000000
C          C       0.97743   0.68020   0.08375   0.0000000000
C          C       0.80349   0.39421   0.73320   0.0000000000
C          C       0.84308   0.46057   0.75817   0.0000000000
B          B       0.74697   0.35335   0.78262   0.0000000000
O          O       0.73977   0.32020   0.74744   0.0000000000
C          C       0.81767   0.45931   0.79761   0.0000000000
C          C       0.78038   0.39211   0.77354   0.0000000000
C          C       0.78731   0.42518   0.80550   0.0000000000
O          O       0.72541   0.35085   0.82647   0.0000000000
C          C       0.75543   0.23219   0.68027   0.0000000000
C          C       0.63501   0.41188   0.84551   0.0000000000
H          H       0.77630   0.21115   0.65825   0.0000000000
H          H       0.72039   0.22095   0.67716   0.0000000000
H          H       0.75766   0.26707   0.66833   0.0000000000
H          H       0.61387   0.43388   0.86632   0.0000000000
H          H       0.66911   0.42603   0.84472   0.0000000000
H          H       0.62153   0.41206   0.81114   0.0000000000
H          H       0.82173   0.48481   0.82266   0.0000000000
H          H       0.84941   0.42955   0.69296   0.0000000000
H          H       0.76918   0.42492   0.83659   0.0000000000
H          H       0.79792   0.36969   0.70745   0.0000000000
C          C       0.02257   0.81980   0.08375   0.0000000000
C          C       0.30349   0.89421   0.23320   0.0000000000
C          C       0.34308   0.96057   0.25817   0.0000000000
B          B       0.24697   0.85335   0.28262   0.0000000000
O          O       0.23977   0.82020   0.24744   0.0000000000
C          C       0.31767   0.95931   0.29761   0.0000000000
C          C       0.28038   0.89211   0.27354   0.0000000000
C          C       0.28731   0.92518   0.30550   0.0000000000
O          O       0.22541   0.85085   0.32647   0.0000000000
C          C       0.25543   0.73219   0.18027   0.0000000000
C          C       0.13501   0.91188   0.34551   0.0000000000
H          H       0.27630   0.71115   0.15825   0.0000000000
H          H       0.22039   0.72095   0.17716   0.0000000000
H          H       0.25766   0.76707   0.16833   0.0000000000
H          H       0.11387   0.93388   0.36632   0.0000000000
H          H       0.16911   0.92603   0.34472   0.0000000000
H          H       0.12153   0.91206   0.31114   0.0000000000
H          H       0.32173   0.98481   0.32266   0.0000000000
H          H       0.34941   0.92955   0.19296   0.0000000000
H          H       0.26918   0.92492   0.33659   0.0000000000
H          H       0.29792   0.86969   0.20745   0.0000000000
C          C       0.52257   0.31980   0.58375   0.0000000000
C          C       0.30349   0.10579   0.26680   0.0000000000
C          C       0.34308   0.03943   0.24183   0.0000000000
B          B       0.24697   0.14665   0.21738   0.0000000000
O          O       0.23977   0.17980   0.25256   0.0000000000
C          C       0.31767   0.04069   0.20239   0.0000000000
C          C       0.28038   0.10789   0.22646   0.0000000000
C          C       0.28731   0.07482   0.19450   0.0000000000
O          O       0.22541   0.14915   0.17353   0.0000000000
C          C       0.25543   0.26781   0.31973   0.0000000000
C          C       0.13501   0.08812   0.15449   0.0000000000
H          H       0.27630   0.28885   0.34175   0.0000000000
H          H       0.22039   0.27905   0.32284   0.0000000000
H          H       0.25766   0.23293   0.33167   0.0000000000
H          H       0.11387   0.06612   0.13368   0.0000000000
H          H       0.16911   0.07397   0.15528   0.0000000000
H          H       0.12153   0.08794   0.18886   0.0000000000
H          H       0.32173   0.01519   0.17734   0.0000000000
H          H       0.34941   0.07045   0.30704   0.0000000000
H          H       0.26918   0.07508   0.16341   0.0000000000
H          H       0.29792   0.13031   0.29255   0.0000000000
C          C       0.52257   0.68020   0.91625   0.0000000000
C          C       0.80349   0.60579   0.76680   0.0000000000
C          C       0.84308   0.53943   0.74183   0.0000000000
B          B       0.74697   0.64665   0.71738   0.0000000000
O          O       0.73977   0.67980   0.75256   0.0000000000
C          C       0.81767   0.54069   0.70239   0.0000000000
C          C       0.78038   0.60789   0.72646   0.0000000000
C          C       0.78731   0.57482   0.69450   0.0000000000
O          O       0.72541   0.64915   0.67353   0.0000000000
C          C       0.75543   0.76781   0.81973   0.0000000000
C          C       0.63501   0.58812   0.65449   0.0000000000
H          H       0.77630   0.78885   0.84175   0.0000000000
H          H       0.72039   0.77905   0.82284   0.0000000000
H          H       0.75766   0.73293   0.83167   0.0000000000
H          H       0.61387   0.56612   0.63368   0.0000000000
H          H       0.66911   0.57397   0.65528   0.0000000000
H          H       0.62153   0.58794   0.68886   0.0000000000
H          H       0.82173   0.51519   0.67734   0.0000000000
H          H       0.84941   0.57045   0.80704   0.0000000000
H          H       0.76918   0.57508   0.66341   0.0000000000
H          H       0.79792   0.63031   0.79255   0.0000000000
C          C       0.02257   0.18020   0.41625   0.0000000000
C          C       0.19651   0.89421   0.76680   0.0000000000
C          C       0.15692   0.96057   0.74183   0.0000000000
B          B       0.25303   0.85335   0.71738   0.0000000000
O          O       0.26023   0.82020   0.75256   0.0000000000
C          C       0.18233   0.95931   0.70239   0.0000000000
C          C       0.21962   0.89211   0.72646   0.0000000000
C          C       0.21269   0.92518   0.69450   0.0000000000
O          O       0.27459   0.85085   0.67353   0.0000000000
C          C       0.24457   0.73219   0.81973   0.0000000000
C          C       0.36499   0.91188   0.65449   0.0000000000
H          H       0.22370   0.71115   0.84175   0.0000000000
H          H       0.27961   0.72095   0.82284   0.0000000000
H          H       0.24234   0.76707   0.83167   0.0000000000
H          H       0.38613   0.93388   0.63368   0.0000000000
H          H       0.33089   0.92603   0.65528   0.0000000000
H          H       0.37847   0.91206   0.68886   0.0000000000
H          H       0.17827   0.98481   0.67734   0.0000000000
H          H       0.15059   0.92955   0.80704   0.0000000000
H          H       0.23082   0.92492   0.66341   0.0000000000
H          H       0.20208   0.86969   0.79255   0.0000000000
C          C       0.97743   0.31980   0.41625   0.0000000000
C          C       0.69651   0.39421   0.26680   0.0000000000
C          C       0.65692   0.46057   0.24183   0.0000000000
B          B       0.75303   0.35335   0.21738   0.0000000000
O          O       0.76023   0.32020   0.25256   0.0000000000
C          C       0.68233   0.45931   0.20239   0.0000000000
C          C       0.71962   0.39211   0.22646   0.0000000000
C          C       0.71269   0.42518   0.19450   0.0000000000
O          O       0.77459   0.35085   0.17353   0.0000000000
C          C       0.74457   0.23219   0.31973   0.0000000000
C          C       0.86499   0.41188   0.15449   0.0000000000
H          H       0.72370   0.21115   0.34175   0.0000000000
H          H       0.77961   0.22095   0.32284   0.0000000000
H          H       0.74234   0.26707   0.33167   0.0000000000
H          H       0.88613   0.43388   0.13368   0.0000000000
H          H       0.83089   0.42603   0.15528   0.0000000000
H          H       0.87847   0.41206   0.18886   0.0000000000
H          H       0.67827   0.48481   0.17734   0.0000000000
H          H       0.65059   0.42955   0.30704   0.0000000000
H          H       0.73082   0.42492   0.16341   0.0000000000
H          H       0.70208   0.36969   0.29255   0.0000000000
C          C       0.47743   0.81980   0.91625   0.0000000000
C          C       0.23320   0.69651   0.60579   0.0000000000
C          C       0.25817   0.65692   0.53943   0.0000000000
B          B       0.28262   0.75303   0.64665   0.0000000000
O          O       0.24744   0.76023   0.67980   0.0000000000
C          C       0.29761   0.68233   0.54069   0.0000000000
C          C       0.27354   0.71962   0.60789   0.0000000000
C          C       0.30550   0.71269   0.57482   0.0000000000
O          O       0.32647   0.77459   0.64915   0.0000000000
C          C       0.18027   0.74457   0.76781   0.0000000000
C          C       0.34551   0.86499   0.58812   0.0000000000
H          H       0.15825   0.72370   0.78885   0.0000000000
H          H       0.17716   0.77961   0.77905   0.0000000000
H          H       0.16833   0.74234   0.73293   0.0000000000
H          H       0.36632   0.88613   0.56612   0.0000000000
H          H       0.34472   0.83089   0.57397   0.0000000000
H          H       0.31114   0.87847   0.58794   0.0000000000
H          H       0.32266   0.67827   0.51519   0.0000000000
H          H       0.19296   0.65059   0.57045   0.0000000000
H          H       0.33659   0.73082   0.57508   0.0000000000
H          H       0.20745   0.70208   0.63031   0.0000000000
C          C       0.58375   0.47743   0.18020   0.0000000000
C          C       0.73320   0.19651   0.10579   0.0000000000
C          C       0.75817   0.15692   0.03943   0.0000000000
B          B       0.78262   0.25303   0.14665   0.0000000000
O          O       0.74744   0.26023   0.17980   0.0000000000
C          C       0.79761   0.18233   0.04069   0.0000000000
C          C       0.77354   0.21962   0.10789   0.0000000000
C          C       0.80550   0.21269   0.07482   0.0000000000
O          O       0.82647   0.27459   0.14915   0.0000000000
C          C       0.68027   0.24457   0.26781   0.0000000000
C          C       0.84551   0.36499   0.08812   0.0000000000
H          H       0.65825   0.22370   0.28885   0.0000000000
H          H       0.67716   0.27961   0.27905   0.0000000000
H          H       0.66833   0.24234   0.23293   0.0000000000
H          H       0.86632   0.38613   0.06612   0.0000000000
H          H       0.84472   0.33089   0.07397   0.0000000000
H          H       0.81114   0.37847   0.08794   0.0000000000
H          H       0.82266   0.17827   0.01519   0.0000000000
H          H       0.69296   0.15059   0.07045   0.0000000000
H          H       0.83659   0.23082   0.07508   0.0000000000
H          H       0.70745   0.20208   0.13031   0.0000000000
C          C       0.08375   0.97743   0.68020   0.0000000000
C          C       0.73320   0.80349   0.39421   0.0000000000
C          C       0.75817   0.84308   0.46057   0.0000000000
B          B       0.78262   0.74697   0.35335   0.0000000000
O          O       0.74744   0.73977   0.32020   0.0000000000
C          C       0.79761   0.81767   0.45931   0.0000000000
C          C       0.77354   0.78038   0.39211   0.0000000000
C          C       0.80550   0.78731   0.42518   0.0000000000
O          O       0.82647   0.72541   0.35085   0.0000000000
C          C       0.68027   0.75543   0.23219   0.0000000000
C          C       0.84551   0.63501   0.41188   0.0000000000
H          H       0.65825   0.77630   0.21115   0.0000000000
H          H       0.67716   0.72039   0.22095   0.0000000000
H          H       0.66833   0.75766   0.26707   0.0000000000
H          H       0.86632   0.61387   0.43388   0.0000000000
H          H       0.84472   0.66911   0.42603   0.0000000000
H          H       0.81114   0.62153   0.41206   0.0000000000
H          H       0.82266   0.82173   0.48481   0.0000000000
H          H       0.69296   0.84941   0.42955   0.0000000000
H          H       0.83659   0.76918   0.42492   0.0000000000
H          H       0.70745   0.79792   0.36969   0.0000000000
C          C       0.08375   0.02257   0.81980   0.0000000000
C          C       0.23320   0.30349   0.89421   0.0000000000
C          C       0.25817   0.34308   0.96057   0.0000000000
B          B       0.28262   0.24697   0.85335   0.0000000000
O          O       0.24744   0.23977   0.82020   0.0000000000
C          C       0.29761   0.31767   0.95931   0.0000000000
C          C       0.27354   0.28038   0.89211   0.0000000000
C          C       0.30550   0.28731   0.92518   0.0000000000
O          O       0.32647   0.22541   0.85085   0.0000000000
C          C       0.18027   0.25543   0.73219   0.0000000000
C          C       0.34551   0.13501   0.91188   0.0000000000
H          H       0.15825   0.27630   0.71115   0.0000000000
H          H       0.17716   0.22039   0.72095   0.0000000000
H          H       0.16833   0.25766   0.76707   0.0000000000
H          H       0.36632   0.11387   0.93388   0.0000000000
H          H       0.34472   0.16911   0.92603   0.0000000000
H          H       0.31114   0.12153   0.91206   0.0000000000
H          H       0.32266   0.32173   0.98481   0.0000000000
H          H       0.19296   0.34941   0.92955   0.0000000000
H          H       0.33659   0.26918   0.92492   0.0000000000
H          H       0.20745   0.29792   0.86969   0.0000000000
C          C       0.58375   0.52257   0.31980   0.0000000000
C          C       0.26680   0.30349   0.10579   0.0000000000
C          C       0.24183   0.34308   0.03943   0.0000000000
B          B       0.21738   0.24697   0.14665   0.0000000000
O          O       0.25256   0.23977   0.17980   0.0000000000
C          C       0.20239   0.31767   0.04069   0.0000000000
C          C       0.22646   0.28038   0.10789   0.0000000000
C          C       0.19450   0.28731   0.07482   0.0000000000
O          O       0.17353   0.22541   0.14915   0.0000000000
C          C       0.31973   0.25543   0.26781   0.0000000000
C          C       0.15449   0.13501   0.08812   0.0000000000
H          H       0.34175   0.27630   0.28885   0.0000000000
H          H       0.32284   0.22039   0.27905   0.0000000000
H          H       0.33167   0.25766   0.23293   0.0000000000
H          H       0.13368   0.11387   0.06612   0.0000000000
H          H       0.15528   0.16911   0.07397   0.0000000000
H          H       0.18886   0.12153   0.08794   0.0000000000
H          H       0.17734   0.32173   0.01519   0.0000000000
H          H       0.30704   0.34941   0.07045   0.0000000000
H          H       0.16341   0.26918   0.07508   0.0000000000
H          H       0.29255   0.29792   0.13031   0.0000000000
C          C       0.91625   0.52257   0.68020   0.0000000000
C          C       0.76680   0.80349   0.60579   0.0000000000
C          C       0.74183   0.84308   0.53943   0.0000000000
B          B       0.71738   0.74697   0.64665   0.0000000000
O          O       0.75256   0.73977   0.67980   0.0000000000
C          C       0.70239   0.81767   0.54069   0.0000000000
C          C       0.72646   0.78038   0.60789   0.0000000000
C          C       0.69450   0.78731   0.57482   0.0000000000
O          O       0.67353   0.72541   0.64915   0.0000000000
C          C       0.81973   0.75543   0.76781   0.0000000000
C          C       0.65449   0.63501   0.58812   0.0000000000
H          H       0.84175   0.77630   0.78885   0.0000000000
H          H       0.82284   0.72039   0.77905   0.0000000000
H          H       0.83167   0.75766   0.73293   0.0000000000
H          H       0.63368   0.61387   0.56612   0.0000000000
H          H       0.65528   0.66911   0.57397   0.0000000000
H          H       0.68886   0.62153   0.58794   0.0000000000
H          H       0.67734   0.82173   0.51519   0.0000000000
H          H       0.80704   0.84941   0.57045   0.0000000000
H          H       0.66341   0.76918   0.57508   0.0000000000
H          H       0.79255   0.79792   0.63031   0.0000000000
C          C       0.41625   0.02257   0.18020   0.0000000000
C          C       0.76680   0.19651   0.89421   0.0000000000
C          C       0.74183   0.15692   0.96057   0.0000000000
B          B       0.71738   0.25303   0.85335   0.0000000000
O          O       0.75256   0.26023   0.82020   0.0000000000
C          C       0.70239   0.18233   0.95931   0.0000000000
C          C       0.72646   0.21962   0.89211   0.0000000000
C          C       0.69450   0.21269   0.92518   0.0000000000
O          O       0.67353   0.27459   0.85085   0.0000000000
C          C       0.81973   0.24457   0.73219   0.0000000000
C          C       0.65449   0.36499   0.91188   0.0000000000
H          H       0.84175   0.22370   0.71115   0.0000000000
H          H       0.82284   0.27961   0.72095   0.0000000000
H          H       0.83167   0.24234   0.76707   0.0000000000
H          H       0.63368   0.38613   0.93388   0.0000000000
H          H       0.65528   0.33089   0.92603   0.0000000000
H          H       0.68886   0.37847   0.91206   0.0000000000
H          H       0.67734   0.17827   0.98481   0.0000000000
H          H       0.80704   0.15059   0.92955   0.0000000000
H          H       0.66341   0.23082   0.92492   0.0000000000
H          H       0.79255   0.20208   0.86969   0.0000000000
C          C       0.41625   0.97743   0.31980   0.0000000000
C          C       0.26680   0.69651   0.39421   0.0000000000
C          C       0.24183   0.65692   0.46057   0.0000000000
B          B       0.21738   0.75303   0.35335   0.0000000000
O          O       0.25256   0.76023   0.32020   0.0000000000
C          C       0.20239   0.68233   0.45931   0.0000000000
C          C       0.22646   0.71962   0.39211   0.0000000000
C          C       0.19450   0.71269   0.42518   0.0000000000
O          O       0.17353   0.77459   0.35085   0.0000000000
C          C       0.31973   0.74457   0.23219   0.0000000000
C          C       0.15449   0.86499   0.41188   0.0000000000
H          H       0.34175   0.72370   0.21115   0.0000000000
H          H       0.32284   0.77961   0.22095   0.0000000000
H          H       0.33167   0.74234   0.26707   0.0000000000
H          H       0.13368   0.88613   0.43388   0.0000000000
H          H       0.15528   0.83089   0.42603   0.0000000000
H          H       0.18886   0.87847   0.41206   0.0000000000
H          H       0.17734   0.67827   0.48481   0.0000000000
H          H       0.30704   0.65059   0.42955   0.0000000000
H          H       0.16341   0.73082   0.42492   0.0000000000
H          H       0.29255   0.70208   0.36969   0.0000000000
C          C       0.91625   0.47743   0.81980   0.0000000000
C          C       0.60579   0.23320   0.69651   0.0000000000
C          C       0.53943   0.25817   0.65692   0.0000000000
B          B       0.64665   0.28262   0.75303   0.0000000000
O          O       0.67980   0.24744   0.76023   0.0000000000
C          C       0.54069   0.29761   0.68233   0.0000000000
C          C       0.60789   0.27354   0.71962   0.0000000000
C          C       0.57482   0.30550   0.71269   0.0000000000
O          O       0.64915   0.32647   0.77459   0.0000000000
C          C       0.76781   0.18027   0.74457   0.0000000000
C          C       0.58812   0.34551   0.86499   0.0000000000
H          H       0.78885   0.15825   0.72370   0.0000000000
H          H       0.77905   0.17716   0.77961   0.0000000000
H          H       0.73293   0.16833   0.74234   0.0000000000
H          H       0.56612   0.36632   0.88613   0.0000000000
H          H       0.57397   0.34472   0.83089   0.0000000000
H          H       0.58794   0.31114   0.87847   0.0000000000
H          H       0.51519   0.32266   0.67827   0.0000000000
H          H       0.57045   0.19296   0.65059   0.0000000000
H          H       0.57508   0.33659   0.73082   0.0000000000
H          H       0.63031   0.20745   0.70208   0.0000000000
C          C       0.18020   0.58375   0.47743   0.0000000000
C          C       0.10579   0.73320   0.19651   0.0000000000
C          C       0.03943   0.75817   0.15692   0.0000000000
B          B       0.14665   0.78262   0.25303   0.0000000000
O          O       0.17980   0.74744   0.26023   0.0000000000
C          C       0.04069   0.79761   0.18233   0.0000000000
C          C       0.10789   0.77354   0.21962   0.0000000000
C          C       0.07482   0.80550   0.21269   0.0000000000
O          O       0.14915   0.82647   0.27459   0.0000000000
C          C       0.26781   0.68027   0.24457   0.0000000000
C          C       0.08812   0.84551   0.36499   0.0000000000
H          H       0.28885   0.65825   0.22370   0.0000000000
H          H       0.27905   0.67716   0.27961   0.0000000000
H          H       0.23293   0.66833   0.24234   0.0000000000
H          H       0.06612   0.86632   0.38613   0.0000000000
H          H       0.07397   0.84472   0.33089   0.0000000000
H          H       0.08794   0.81114   0.37847   0.0000000000
H          H       0.01519   0.82266   0.17827   0.0000000000
H          H       0.07045   0.69296   0.15059   0.0000000000
H          H       0.07508   0.83659   0.23082   0.0000000000
H          H       0.13031   0.70745   0.20208   0.0000000000
C          C       0.68020   0.08375   0.97743   0.0000000000
C          C       0.39421   0.73320   0.80349   0.0000000000
C          C       0.46057   0.75817   0.84308   0.0000000000
B          B       0.35335   0.78262   0.74697   0.0000000000
O          O       0.32020   0.74744   0.73977   0.0000000000
C          C       0.45931   0.79761   0.81767   0.0000000000
C          C       0.39211   0.77354   0.78038   0.0000000000
C          C       0.42518   0.80550   0.78731   0.0000000000
O          O       0.35085   0.82647   0.72541   0.0000000000
C          C       0.23219   0.68027   0.75543   0.0000000000
C          C       0.41188   0.84551   0.63501   0.0000000000
H          H       0.21115   0.65825   0.77630   0.0000000000
H          H       0.22095   0.67716   0.72039   0.0000000000
H          H       0.26707   0.66833   0.75766   0.0000000000
H          H       0.43388   0.86632   0.61387   0.0000000000
H          H       0.42603   0.84472   0.66911   0.0000000000
H          H       0.41206   0.81114   0.62153   0.0000000000
H          H       0.48481   0.82266   0.82173   0.0000000000
H          H       0.42955   0.69296   0.84941   0.0000000000
H          H       0.42492   0.83659   0.76918   0.0000000000
H          H       0.36969   0.70745   0.79792   0.0000000000
C          C       0.81980   0.08375   0.02257   0.0000000000
C          C       0.89421   0.23320   0.30349   0.0000000000
C          C       0.96057   0.25817   0.34308   0.0000000000
B          B       0.85335   0.28262   0.24697   0.0000000000
O          O       0.82020   0.24744   0.23977   0.0000000000
C          C       0.95931   0.29761   0.31767   0.0000000000
C          C       0.89211   0.27354   0.28038   0.0000000000
C          C       0.92518   0.30550   0.28731   0.0000000000
O          O       0.85085   0.32647   0.22541   0.0000000000
C          C       0.73219   0.18027   0.25543   0.0000000000
C          C       0.91188   0.34551   0.13501   0.0000000000
H          H       0.71115   0.15825   0.27630   0.0000000000
H          H       0.72095   0.17716   0.22039   0.0000000000
H          H       0.76707   0.16833   0.25766   0.0000000000
H          H       0.93388   0.36632   0.11387   0.0000000000
H          H       0.92603   0.34472   0.16911   0.0000000000
H          H       0.91206   0.31114   0.12153   0.0000000000
H          H       0.98481   0.32266   0.32173   0.0000000000
H          H       0.92955   0.19296   0.34941   0.0000000000
H          H       0.92492   0.33659   0.26918   0.0000000000
H          H       0.86969   0.20745   0.29792   0.0000000000
C          C       0.31980   0.58375   0.52257   0.0000000000
C          C       0.10579   0.26680   0.30349   0.0000000000
C          C       0.03943   0.24183   0.34308   0.0000000000
B          B       0.14665   0.21738   0.24697   0.0000000000
O          O       0.17980   0.25256   0.23977   0.0000000000
C          C       0.04069   0.20239   0.31767   0.0000000000
C          C       0.10789   0.22646   0.28038   0.0000000000
C          C       0.07482   0.19450   0.28731   0.0000000000
O          O       0.14915   0.17353   0.22541   0.0000000000
C          C       0.26781   0.31973   0.25543   0.0000000000
C          C       0.08812   0.15449   0.13501   0.0000000000
H          H       0.28885   0.34175   0.27630   0.0000000000
H          H       0.27905   0.32284   0.22039   0.0000000000
H          H       0.23293   0.33167   0.25766   0.0000000000
H          H       0.06612   0.13368   0.11387   0.0000000000
H          H       0.07397   0.15528   0.16911   0.0000000000
H          H       0.08794   0.18886   0.12153   0.0000000000
H          H       0.01519   0.17734   0.32173   0.0000000000
H          H       0.07045   0.30704   0.34941   0.0000000000
H          H       0.07508   0.16341   0.26918   0.0000000000
H          H       0.13031   0.29255   0.29792   0.0000000000
C          C       0.68020   0.91625   0.52257   0.0000000000
C          C       0.60579   0.76680   0.80349   0.0000000000
C          C       0.53943   0.74183   0.84308   0.0000000000
B          B       0.64665   0.71738   0.74697   0.0000000000
O          O       0.67980   0.75256   0.73977   0.0000000000
C          C       0.54069   0.70239   0.81767   0.0000000000
C          C       0.60789   0.72646   0.78038   0.0000000000
C          C       0.57482   0.69450   0.78731   0.0000000000
O          O       0.64915   0.67353   0.72541   0.0000000000
C          C       0.76781   0.81973   0.75543   0.0000000000
C          C       0.58812   0.65449   0.63501   0.0000000000
H          H       0.78885   0.84175   0.77630   0.0000000000
H          H       0.77905   0.82284   0.72039   0.0000000000
H          H       0.73293   0.83167   0.75766   0.0000000000
H          H       0.56612   0.63368   0.61387   0.0000000000
H          H       0.57397   0.65528   0.66911   0.0000000000
H          H       0.58794   0.68886   0.62153   0.0000000000
H          H       0.51519   0.67734   0.82173   0.0000000000
H          H       0.57045   0.80704   0.84941   0.0000000000
H          H       0.57508   0.66341   0.76918   0.0000000000
H          H       0.63031   0.79255   0.79792   0.0000000000
C          C       0.18020   0.41625   0.02257   0.0000000000
C          C       0.89421   0.76680   0.19651   0.0000000000
C          C       0.96057   0.74183   0.15692   0.0000000000
B          B       0.85335   0.71738   0.25303   0.0000000000
O          O       0.82020   0.75256   0.26023   0.0000000000
C          C       0.95931   0.70239   0.18233   0.0000000000
C          C       0.89211   0.72646   0.21962   0.0000000000
C          C       0.92518   0.69450   0.21269   0.0000000000
O          O       0.85085   0.67353   0.27459   0.0000000000
C          C       0.73219   0.81973   0.24457   0.0000000000
C          C       0.91188   0.65449   0.36499   0.0000000000
H          H       0.71115   0.84175   0.22370   0.0000000000
H          H       0.72095   0.82284   0.27961   0.0000000000
H          H       0.76707   0.83167   0.24234   0.0000000000
H          H       0.93388   0.63368   0.38613   0.0000000000
H          H       0.92603   0.65528   0.33089   0.0000000000
H          H       0.91206   0.68886   0.37847   0.0000000000
H          H       0.98481   0.67734   0.17827   0.0000000000
H          H       0.92955   0.80704   0.15059   0.0000000000
H          H       0.92492   0.66341   0.23082   0.0000000000
H          H       0.86969   0.79255   0.20208   0.0000000000
C          C       0.31980   0.41625   0.97743   0.0000000000
C          C       0.39421   0.26680   0.69651   0.0000000000
C          C       0.46057   0.24183   0.65692   0.0000000000
B          B       0.35335   0.21738   0.75303   0.0000000000
O          O       0.32020   0.25256   0.76023   0.0000000000
C          C       0.45931   0.20239   0.68233   0.0000000000
C          C       0.39211   0.22646   0.71962   0.0000000000
C          C       0.42518   0.19450   0.71269   0.0000000000
O          O       0.35085   0.17353   0.77459   0.0000000000
C          C       0.23219   0.31973   0.74457   0.0000000000
C          C       0.41188   0.15449   0.86499   0.0000000000
H          H       0.21115   0.34175   0.72370   0.0000000000
H          H       0.22095   0.32284   0.77961   0.0000000000
H          H       0.26707   0.33167   0.74234   0.0000000000
H          H       0.43388   0.13368   0.88613   0.0000000000
H          H       0.42603   0.15528   0.83089   0.0000000000
H          H       0.41206   0.18886   0.87847   0.0000000000
H          H       0.48481   0.17734   0.67827   0.0000000000
H          H       0.42955   0.30704   0.65059   0.0000000000
H          H       0.42492   0.16341   0.73082   0.0000000000
H          H       0.36969   0.29255   0.70208   0.0000000000
C          C       0.81980   0.91625   0.47743   0.0000000000
C          C       0.85579   0.94651   0.48320   0.0000000000
C          C       0.78943   0.90692   0.50817   0.0000000000
B          B       0.89665   0.00303   0.53262   0.0000000000
O          O       0.92980   0.01023   0.49744   0.0000000000
C          C       0.79069   0.93233   0.54761   0.0000000000
C          C       0.85789   0.96962   0.52354   0.0000000000
C          C       0.82482   0.96269   0.55550   0.0000000000
O          O       0.89915   0.02459   0.57647   0.0000000000
C          C       0.01781   0.99457   0.43027   0.0000000000
C          C       0.83812   0.11499   0.59551   0.0000000000
H          H       0.03885   0.97370   0.40825   0.0000000000
H          H       0.02905   0.02961   0.42716   0.0000000000
H          H       0.98293   0.99234   0.41833   0.0000000000
H          H       0.81612   0.13613   0.61632   0.0000000000
H          H       0.82397   0.08089   0.59472   0.0000000000
H          H       0.83794   0.12847   0.56114   0.0000000000
H          H       0.76519   0.92827   0.57266   0.0000000000
H          H       0.82045   0.90059   0.44296   0.0000000000
H          H       0.82508   0.98082   0.58659   0.0000000000
H          H       0.88031   0.95208   0.45745   0.0000000000
C          C       0.43020   0.72743   0.83375   0.0000000000
C          C       0.35579   0.44651   0.98320   0.0000000000
C          C       0.28943   0.40692   0.00817   0.0000000000
B          B       0.39665   0.50303   0.03262   0.0000000000
O          O       0.42980   0.51023   0.99744   0.0000000000
C          C       0.29069   0.43233   0.04761   0.0000000000
C          C       0.35789   0.46962   0.02354   0.0000000000
C          C       0.32482   0.46269   0.05550   0.0000000000
O          O       0.39915   0.52459   0.07647   0.0000000000
C          C       0.51781   0.49457   0.93027   0.0000000000
C          C       0.33812   0.61499   0.09551   0.0000000000
H          H       0.53885   0.47370   0.90825   0.0000000000
H          H       0.52905   0.52961   0.92716   0.0000000000
H          H       0.48293   0.49234   0.91833   0.0000000000
H          H       0.31612   0.63613   0.11632   0.0000000000
H          H       0.32397   0.58089   0.09472   0.0000000000
H          H       0.33794   0.62847   0.06114   0.0000000000
H          H       0.26519   0.42827   0.07266   0.0000000000
H          H       0.32045   0.40059   0.94296   0.0000000000
H          H       0.32508   0.48082   0.08659   0.0000000000
H          H       0.38031   0.45208   0.95745   0.0000000000
C          C       0.93020   0.22743   0.33375   0.0000000000
C          C       0.64421   0.05349   0.98320   0.0000000000
C          C       0.71057   0.09308   0.00817   0.0000000000
B          B       0.60335   0.99697   0.03262   0.0000000000
O          O       0.57020   0.98977   0.99744   0.0000000000
C          C       0.70931   0.06767   0.04761   0.0000000000
C          C       0.64211   0.03038   0.02354   0.0000000000
C          C       0.67518   0.03731   0.05550   0.0000000000
O          O       0.60085   0.97541   0.07647   0.0000000000
C          C       0.48219   0.00543   0.93027   0.0000000000
C          C       0.66188   0.88501   0.09551   0.0000000000
H          H       0.46115   0.02630   0.90825   0.0000000000
H          H       0.47095   0.97039   0.92716   0.0000000000
H          H       0.51707   0.00766   0.91833   0.0000000000
H          H       0.68388   0.86387   0.11632   0.0000000000
H          H       0.67603   0.91911   0.09472   0.0000000000
H          H       0.66206   0.87153   0.06114   0.0000000000
H          H       0.73481   0.07173   0.07266   0.0000000000
H          H       0.67955   0.09941   0.94296   0.0000000000
H          H       0.67492   0.01918   0.08659   0.0000000000
H          H       0.61969   0.04792   0.95745   0.0000000000
C          C       0.06980   0.27257   0.33375   0.0000000000
C          C       0.14421   0.55349   0.48320   0.0000000000
C          C       0.21057   0.59308   0.50817   0.0000000000
B          B       0.10335   0.49697   0.53262   0.0000000000
O          O       0.07020   0.48977   0.49744   0.0000000000
C          C       0.20931   0.56767   0.54761   0.0000000000
C          C       0.14211   0.53038   0.52354   0.0000000000
C          C       0.17518   0.53731   0.55550   0.0000000000
O          O       0.10085   0.47541   0.57647   0.0000000000
C          C       0.98219   0.50543   0.43027   0.0000000000
C          C       0.16188   0.38501   0.59551   0.0000000000
H          H       0.96115   0.52630   0.40825   0.0000000000
H          H       0.97095   0.47039   0.42716   0.0000000000
H          H       0.01707   0.50766   0.41833   0.0000000000
H          H       0.18388   0.36387   0.61632   0.0000000000
H          H       0.17603   0.41911   0.59472   0.0000000000
H          H       0.16206   0.37153   0.56114   0.0000000000
H          H       0.23481   0.57173   0.57266   0.0000000000
H          H       0.17955   0.59941   0.44296   0.0000000000
H          H       0.17492   0.51918   0.58659   0.0000000000
H          H       0.11969   0.54792   0.45745   0.0000000000
C          C       0.56980   0.77257   0.83375   0.0000000000
C          C       0.35579   0.55349   0.51680   0.0000000000
C          C       0.28943   0.59308   0.49183   0.0000000000
B          B       0.39665   0.49697   0.46738   0.0000000000
O          O       0.42980   0.48977   0.50256   0.0000000000
C          C       0.29069   0.56767   0.45239   0.0000000000
C          C       0.35789   0.53038   0.47646   0.0000000000
C          C       0.32482   0.53731   0.44450   0.0000000000
O          O       0.39915   0.47541   0.42353   0.0000000000
C          C       0.51781   0.50543   0.56973   0.0000000000
C          C       0.33812   0.38501   0.40449   0.0000000000
H          H       0.53885   0.52630   0.59175   0.0000000000
H          H       0.52905   0.47039   0.57284   0.0000000000
H          H       0.48293   0.50766   0.58167   0.0000000000
H          H       0.31612   0.36387   0.38368   0.0000000000
H          H       0.32397   0.41911   0.40528   0.0000000000
H          H       0.33794   0.37153   0.43886   0.0000000000
H          H       0.26519   0.57173   0.42734   0.0000000000
H          H       0.32045   0.59941   0.55704   0.0000000000
H          H       0.32508   0.51918   0.41341   0.0000000000
H          H       0.38031   0.54792   0.54255   0.0000000000
C          C       0.93020   0.77257   0.16625   0.0000000000
C          C       0.85579   0.05349   0.01680   0.0000000000
C          C       0.78943   0.09308   0.99183   0.0000000000
B          B       0.89665   0.99697   0.96738   0.0000000000
O          O       0.92980   0.98977   0.00256   0.0000000000
C          C       0.79069   0.06767   0.95239   0.0000000000
C          C       0.85789   0.03038   0.97646   0.0000000000
C          C       0.82482   0.03731   0.94450   0.0000000000
O          O       0.89915   0.97541   0.92353   0.0000000000
C          C       0.01781   0.00543   0.06973   0.0000000000
C          C       0.83812   0.88501   0.90449   0.0000000000
H          H       0.03885   0.02630   0.09175   0.0000000000
H          H       0.02905   0.97039   0.07284   0.0000000000
H          H       0.98293   0.00766   0.08167   0.0000000000
H          H       0.81612   0.86387   0.88368   0.0000000000
H          H       0.82397   0.91911   0.90528   0.0000000000
H          H       0.83794   0.87153   0.93886   0.0000000000
H          H       0.76519   0.07173   0.92734   0.0000000000
H          H       0.82045   0.09941   0.05704   0.0000000000
H          H       0.82508   0.01918   0.91341   0.0000000000
H          H       0.88031   0.04792   0.04255   0.0000000000
C          C       0.43020   0.27257   0.66625   0.0000000000
C          C       0.14421   0.44651   0.01680   0.0000000000
C          C       0.21057   0.40692   0.99183   0.0000000000
B          B       0.10335   0.50303   0.96738   0.0000000000
O          O       0.07020   0.51023   0.00256   0.0000000000
C          C       0.20931   0.43233   0.95239   0.0000000000
C          C       0.14211   0.46962   0.97646   0.0000000000
C          C       0.17518   0.46269   0.94450   0.0000000000
O          O       0.10085   0.52459   0.92353   0.0000000000
C          C       0.98219   0.49457   0.06973   0.0000000000
C          C       0.16188   0.61499   0.90449   0.0000000000
H          H       0.96115   0.47370   0.09175   0.0000000000
H          H       0.97095   0.52961   0.07284   0.0000000000
H          H       0.01707   0.49234   0.08167   0.0000000000
H          H       0.18388   0.63613   0.88368   0.0000000000
H          H       0.17603   0.58089   0.90528   0.0000000000
H          H       0.16206   0.62847   0.93886   0.0000000000
H          H       0.23481   0.42827   0.92734   0.0000000000
H          H       0.17955   0.40059   0.05704   0.0000000000
H          H       0.17492   0.48082   0.91341   0.0000000000
H          H       0.11969   0.45208   0.04255   0.0000000000
C          C       0.56980   0.22743   0.66625   0.0000000000
C          C       0.64421   0.94651   0.51680   0.0000000000
C          C       0.71057   0.90692   0.49183   0.0000000000
B          B       0.60335   0.00303   0.46738   0.0000000000
O          O       0.57020   0.01023   0.50256   0.0000000000
C          C       0.70931   0.93233   0.45239   0.0000000000
C          C       0.64211   0.96962   0.47646   0.0000000000
C          C       0.67518   0.96269   0.44450   0.0000000000
O          O       0.60085   0.02459   0.42353   0.0000000000
C          C       0.48219   0.99457   0.56973   0.0000000000
C          C       0.66188   0.11499   0.40449   0.0000000000
H          H       0.46115   0.97370   0.59175   0.0000000000
H          H       0.47095   0.02961   0.57284   0.0000000000
H          H       0.51707   0.99234   0.58167   0.0000000000
H          H       0.68388   0.13613   0.38368   0.0000000000
H          H       0.67603   0.08089   0.40528   0.0000000000
H          H       0.66206   0.12847   0.43886   0.0000000000
H          H       0.73481   0.92827   0.42734   0.0000000000
H          H       0.67955   0.90059   0.55704   0.0000000000
H          H       0.67492   0.98082   0.41341   0.0000000000
H          H       0.61969   0.95208   0.54255   0.0000000000
C          C       0.06980   0.72743   0.16625   0.0000000000
C          C       0.94651   0.48320   0.85579   0.0000000000
C          C       0.90692   0.50817   0.78943   0.0000000000
B          B       0.00303   0.53262   0.89665   0.0000000000
O          O       0.01023   0.49744   0.92980   0.0000000000
C          C       0.93233   0.54761   0.79069   0.0000000000
C          C       0.96962   0.52354   0.85789   0.0000000000
C          C       0.96269   0.55550   0.82482   0.0000000000
O          O       0.02459   0.57647   0.89915   0.0000000000
C          C       0.99457   0.43027   0.01781   0.0000000000
C          C       0.11499   0.59551   0.83812   0.0000000000
H          H       0.97370   0.40825   0.03885   0.0000000000
H          H       0.02961   0.42716   0.02905   0.0000000000
H          H       0.99234   0.41833   0.98293   0.0000000000
H          H       0.13613   0.61632   0.81612   0.0000000000
H          H       0.08089   0.59472   0.82397   0.0000000000
H          H       0.12847   0.56114   0.83794   0.0000000000
H          H       0.92827   0.57266   0.76519   0.0000000000
H          H       0.90059   0.44296   0.82045   0.0000000000
H          H       0.98082   0.58659   0.82508   0.0000000000
H          H       0.95208   0.45745   0.88031   0.0000000000
C          C       0.72743   0.83375   0.43020   0.0000000000
C          C       0.44651   0.98320   0.35579   0.0000000000
C          C       0.40692   0.00817   0.28943   0.0000000000
B          B       0.50303   0.03262   0.39665   0.0000000000
O          O       0.51023   0.99744   0.42980   0.0000000000
C          C       0.43233   0.04761   0.29069   0.0000000000
C          C       0.46962   0.02354   0.35789   0.0000000000
C          C       0.46269   0.05550   0.32482   0.0000000000
O          O       0.52459   0.07647   0.39915   0.0000000000
C          C       0.49457   0.93027   0.51781   0.0000000000
C          C       0.61499   0.09551   0.33812   0.0000000000
H          H       0.47370   0.90825   0.53885   0.0000000000
H          H       0.52961   0.92716   0.52905   0.0000000000
H          H       0.49234   0.91833   0.48293   0.0000000000
H          H       0.63613   0.11632   0.31612   0.0000000000
H          H       0.58089   0.09472   0.32397   0.0000000000
H          H       0.62847   0.06114   0.33794   0.0000000000
H          H       0.42827   0.07266   0.26519   0.0000000000
H          H       0.40059   0.94296   0.32045   0.0000000000
H          H       0.48082   0.08659   0.32508   0.0000000000
H          H       0.45208   0.95745   0.38031   0.0000000000
C          C       0.22743   0.33375   0.93020   0.0000000000
C          C       0.05349   0.98320   0.64421   0.0000000000
C          C       0.09308   0.00817   0.71057   0.0000000000
B          B       0.99697   0.03262   0.60335   0.0000000000
O          O       0.98977   0.99744   0.57020   0.0000000000
C          C       0.06767   0.04761   0.70931   0.0000000000
C          C       0.03038   0.02354   0.64211   0.0000000000
C          C       0.03731   0.05550   0.67518   0.0000000000
O          O       0.97541   0.07647   0.60085   0.0000000000
C          C       0.00543   0.93027   0.48219   0.0000000000
C          C       0.88501   0.09551   0.66188   0.0000000000
H          H       0.02630   0.90825   0.46115   0.0000000000
H          H       0.97039   0.92716   0.47095   0.0000000000
H          H       0.00766   0.91833   0.51707   0.0000000000
H          H       0.86387   0.11632   0.68388   0.0000000000
H          H       0.91911   0.09472   0.67603   0.0000000000
H          H       0.87153   0.06114   0.66206   0.0000000000
H          H       0.07173   0.07266   0.73481   0.0000000000
H          H       0.09941   0.94296   0.67955   0.0000000000
H          H       0.01918   0.08659   0.67492   0.0000000000
H          H       0.04792   0.95745   0.61969   0.0000000000
C          C       0.27257   0.33375   0.06980   0.0000000000
C          C       0.55349   0.48320   0.14421   0.0000000000
C          C       0.59308   0.50817   0.21057   0.0000000000
B          B       0.49697   0.53262   0.10335   0.0000000000
O          O       0.48977   0.49744   0.07020   0.0000000000
C          C       0.56767   0.54761   0.20931   0.0000000000
C          C       0.53038   0.52354   0.14211   0.0000000000
C          C       0.53731   0.55550   0.17518   0.0000000000
O          O       0.47541   0.57647   0.10085   0.0000000000
C          C       0.50543   0.43027   0.98219   0.0000000000
C          C       0.38501   0.59551   0.16188   0.0000000000
H          H       0.52630   0.40825   0.96115   0.0000000000
H          H       0.47039   0.42716   0.97095   0.0000000000
H          H       0.50766   0.41833   0.01707   0.0000000000
H          H       0.36387   0.61632   0.18388   0.0000000000
H          H       0.41911   0.59472   0.17603   0.0000000000
H          H       0.37153   0.56114   0.16206   0.0000000000
H          H       0.57173   0.57266   0.23481   0.0000000000
H          H       0.59941   0.44296   0.17955   0.0000000000
H          H       0.51918   0.58659   0.17492   0.0000000000
H          H       0.54792   0.45745   0.11969   0.0000000000
C          C       0.77257   0.83375   0.56980   0.0000000000
C          C       0.55349   0.51680   0.35579   0.0000000000
C          C       0.59308   0.49183   0.28943   0.0000000000
B          B       0.49697   0.46738   0.39665   0.0000000000
O          O       0.48977   0.50256   0.42980   0.0000000000
C          C       0.56767   0.45239   0.29069   0.0000000000
C          C       0.53038   0.47646   0.35789   0.0000000000
C          C       0.53731   0.44450   0.32482   0.0000000000
O          O       0.47541   0.42353   0.39915   0.0000000000
C          C       0.50543   0.56973   0.51781   0.0000000000
C          C       0.38501   0.40449   0.33812   0.0000000000
H          H       0.52630   0.59175   0.53885   0.0000000000
H          H       0.47039   0.57284   0.52905   0.0000000000
H          H       0.50766   0.58167   0.48293   0.0000000000
H          H       0.36387   0.38368   0.31612   0.0000000000
H          H       0.41911   0.40528   0.32397   0.0000000000
H          H       0.37153   0.43886   0.33794   0.0000000000
H          H       0.57173   0.42734   0.26519   0.0000000000
H          H       0.59941   0.55704   0.32045   0.0000000000
H          H       0.51918   0.41341   0.32508   0.0000000000
H          H       0.54792   0.54255   0.38031   0.0000000000
C          C       0.77257   0.16625   0.93020   0.0000000000
C          C       0.05349   0.01680   0.85579   0.0000000000
C          C       0.09308   0.99183   0.78943   0.0000000000
B          B       0.99697   0.96738   0.89665   0.0000000000
O          O       0.98977   0.00256   0.92980   0.0000000000
C          C       0.06767   0.95239   0.79069   0.0000000000
C          C       0.03038   0.97646   0.85789   0.0000000000
C          C       0.03731   0.94450   0.82482   0.0000000000
O          O       0.97541   0.92353   0.89915   0.0000000000
C          C       0.00543   0.06973   0.01781   0.0000000000
C          C       0.88501   0.90449   0.83812   0.0000000000
H          H       0.02630   0.09175   0.03885   0.0000000000
H          H       0.97039   0.07284   0.02905   0.0000000000
H          H       0.00766   0.08167   0.98293   0.0000000000
H          H       0.86387   0.88368   0.81612   0.0000000000
H          H       0.91911   0.90528   0.82397   0.0000000000
H          H       0.87153   0.93886   0.83794   0.0000000000
H          H       0.07173   0.92734   0.76519   0.0000000000
H          H       0.09941   0.05704   0.82045   0.0000000000
H          H       0.01918   0.91341   0.82508   0.0000000000
H          H       0.04792   0.04255   0.88031   0.0000000000
C          C       0.27257   0.66625   0.43020   0.0000000000
C          C       0.44651   0.01680   0.14421   0.0000000000
C          C       0.40692   0.99183   0.21057   0.0000000000
B          B       0.50303   0.96738   0.10335   0.0000000000
O          O       0.51023   0.00256   0.07020   0.0000000000
C          C       0.43233   0.95239   0.20931   0.0000000000
C          C       0.46962   0.97646   0.14211   0.0000000000
C          C       0.46269   0.94450   0.17518   0.0000000000
O          O       0.52459   0.92353   0.10085   0.0000000000
C          C       0.49457   0.06973   0.98219   0.0000000000
C          C       0.61499   0.90449   0.16188   0.0000000000
H          H       0.47370   0.09175   0.96115   0.0000000000
H          H       0.52961   0.07284   0.97095   0.0000000000
H          H       0.49234   0.08167   0.01707   0.0000000000
H          H       0.63613   0.88368   0.18388   0.0000000000
H          H       0.58089   0.90528   0.17603   0.0000000000
H          H       0.62847   0.93886   0.16206   0.0000000000
H          H       0.42827   0.92734   0.23481   0.0000000000
H          H       0.40059   0.05704   0.17955   0.0000000000
H          H       0.48082   0.91341   0.17492   0.0000000000
H          H       0.45208   0.04255   0.11969   0.0000000000
C          C       0.22743   0.66625   0.56980   0.0000000000
C          C       0.94651   0.51680   0.64421   0.0000000000
C          C       0.90692   0.49183   0.71057   0.0000000000
B          B       0.00303   0.46738   0.60335   0.0000000000
O          O       0.01023   0.50256   0.57020   0.0000000000
C          C       0.93233   0.45239   0.70931   0.0000000000
C          C       0.96962   0.47646   0.64211   0.0000000000
C          C       0.96269   0.44450   0.67518   0.0000000000
O          O       0.02459   0.42353   0.60085   0.0000000000
C          C       0.99457   0.56973   0.48219   0.0000000000
C          C       0.11499   0.40449   0.66188   0.0000000000
H          H       0.97370   0.59175   0.46115   0.0000000000
H          H       0.02961   0.57284   0.47095   0.0000000000
H          H       0.99234   0.58167   0.51707   0.0000000000
H          H       0.13613   0.38368   0.68388   0.0000000000
H          H       0.08089   0.40528   0.67603   0.0000000000
H          H       0.12847   0.43886   0.66206   0.0000000000
H          H       0.92827   0.42734   0.73481   0.0000000000
H          H       0.90059   0.55704   0.67955   0.0000000000
H          H       0.98082   0.41341   0.67492   0.0000000000
H          H       0.95208   0.54255   0.61969   0.0000000000
C          C       0.72743   0.16625   0.06980   0.0000000000
C          C       0.48320   0.85579   0.94651   0.0000000000
C          C       0.50817   0.78943   0.90692   0.0000000000
B          B       0.53262   0.89665   0.00303   0.0000000000
O          O       0.49744   0.92980   0.01023   0.0000000000
C          C       0.54761   0.79069   0.93233   0.0000000000
C          C       0.52354   0.85789   0.96962   0.0000000000
C          C       0.55550   0.82482   0.96269   0.0000000000
O          O       0.57647   0.89915   0.02459   0.0000000000
C          C       0.43027   0.01781   0.99457   0.0000000000
C          C       0.59551   0.83812   0.11499   0.0000000000
H          H       0.40825   0.03885   0.97370   0.0000000000
H          H       0.42716   0.02905   0.02961   0.0000000000
H          H       0.41833   0.98293   0.99234   0.0000000000
H          H       0.61632   0.81612   0.13613   0.0000000000
H          H       0.59472   0.82397   0.08089   0.0000000000
H          H       0.56114   0.83794   0.12847   0.0000000000
H          H       0.57266   0.76519   0.92827   0.0000000000
H          H       0.44296   0.82045   0.90059   0.0000000000
H          H       0.58659   0.82508   0.98082   0.0000000000
H          H       0.45745   0.88031   0.95208   0.0000000000
C          C       0.83375   0.43020   0.72743   0.0000000000
C          C       0.98320   0.35579   0.44651   0.0000000000
C          C       0.00817   0.28943   0.40692   0.0000000000
B          B       0.03262   0.39665   0.50303   0.0000000000
O          O       0.99744   0.42980   0.51023   0.0000000000
C          C       0.04761   0.29069   0.43233   0.0000000000
C          C       0.02354   0.35789   0.46962   0.0000000000
C          C       0.05550   0.32482   0.46269   0.0000000000
O          O       0.07647   0.39915   0.52459   0.0000000000
C          C       0.93027   0.51781   0.49457   0.0000000000
C          C       0.09551   0.33812   0.61499   0.0000000000
H          H       0.90825   0.53885   0.47370   0.0000000000
H          H       0.92716   0.52905   0.52961   0.0000000000
H          H       0.91833   0.48293   0.49234   0.0000000000
H          H       0.11632   0.31612   0.63613   0.0000000000
H          H       0.09472   0.32397   0.58089   0.0000000000
H          H       0.06114   0.33794   0.62847   0.0000000000
H          H       0.07266   0.26519   0.42827   0.0000000000
H          H       0.94296   0.32045   0.40059   0.0000000000
H          H       0.08659   0.32508   0.48082   0.0000000000
H          H       0.95745   0.38031   0.45208   0.0000000000
C          C       0.33375   0.93020   0.22743   0.0000000000
C          C       0.98320   0.64421   0.05349   0.0000000000
C          C       0.00817   0.71057   0.09308   0.0000000000
B          B       0.03262   0.60335   0.99697   0.0000000000
O          O       0.99744   0.57020   0.98977   0.0000000000
C          C       0.04761   0.70931   0.06767   0.0000000000
C          C       0.02354   0.64211   0.03038   0.0000000000
C          C       0.05550   0.67518   0.03731   0.0000000000
O          O       0.07647   0.60085   0.97541   0.0000000000
C          C       0.93027   0.48219   0.00543   0.0000000000
C          C       0.09551   0.66188   0.88501   0.0000000000
H          H       0.90825   0.46115   0.02630   0.0000000000
H          H       0.92716   0.47095   0.97039   0.0000000000
H          H       0.91833   0.51707   0.00766   0.0000000000
H          H       0.11632   0.68388   0.86387   0.0000000000
H          H       0.09472   0.67603   0.91911   0.0000000000
H          H       0.06114   0.66206   0.87153   0.0000000000
H          H       0.07266   0.73481   0.07173   0.0000000000
H          H       0.94296   0.67955   0.09941   0.0000000000
H          H       0.08659   0.67492   0.01918   0.0000000000
H          H       0.95745   0.61969   0.04792   0.0000000000
C          C       0.33375   0.06980   0.27257   0.0000000000
C          C       0.48320   0.14421   0.55349   0.0000000000
C          C       0.50817   0.21057   0.59308   0.0000000000
B          B       0.53262   0.10335   0.49697   0.0000000000
O          O       0.49744   0.07020   0.48977   0.0000000000
C          C       0.54761   0.20931   0.56767   0.0000000000
C          C       0.52354   0.14211   0.53038   0.0000000000
C          C       0.55550   0.17518   0.53731   0.0000000000
O          O       0.57647   0.10085   0.47541   0.0000000000
C          C       0.43027   0.98219   0.50543   0.0000000000
C          C       0.59551   0.16188   0.38501   0.0000000000
H          H       0.40825   0.96115   0.52630   0.0000000000
H          H       0.42716   0.97095   0.47039   0.0000000000
H          H       0.41833   0.01707   0.50766   0.0000000000
H          H       0.61632   0.18388   0.36387   0.0000000000
H          H       0.59472   0.17603   0.41911   0.0000000000
H          H       0.56114   0.16206   0.37153   0.0000000000
H          H       0.57266   0.23481   0.57173   0.0000000000
H          H       0.44296   0.17955   0.59941   0.0000000000
H          H       0.58659   0.17492   0.51918   0.0000000000
H          H       0.45745   0.11969   0.54792   0.0000000000
C          C       0.83375   0.56980   0.77257   0.0000000000
C          C       0.51680   0.35579   0.55349   0.0000000000
C          C       0.49183   0.28943   0.59308   0.0000000000
B          B       0.46738   0.39665   0.49697   0.0000000000
O          O       0.50256   0.42980   0.48977   0.0000000000
C          C       0.45239   0.29069   0.56767   0.0000000000
C          C       0.47646   0.35789   0.53038   0.0000000000
C          C       0.44450   0.32482   0.53731   0.0000000000
O          O       0.42353   0.39915   0.47541   0.0000000000
C          C       0.56973   0.51781   0.50543   0.0000000000
C          C       0.40449   0.33812   0.38501   0.0000000000
H          H       0.59175   0.53885   0.52630   0.0000000000
H          H       0.57284   0.52905   0.47039   0.0000000000
H          H       0.58167   0.48293   0.50766   0.0000000000
H          H       0.38368   0.31612   0.36387   0.0000000000
H          H       0.40528   0.32397   0.41911   0.0000000000
H          H       0.43886   0.33794   0.37153   0.0000000000
H          H       0.42734   0.26519   0.57173   0.0000000000
H          H       0.55704   0.32045   0.59941   0.0000000000
H          H       0.41341   0.32508   0.51918   0.0000000000
H          H       0.54255   0.38031   0.54792   0.0000000000
C          C       0.16625   0.93020   0.77257   0.0000000000
C          C       0.01680   0.85579   0.05349   0.0000000000
C          C       0.99183   0.78943   0.09308   0.0000000000
B          B       0.96738   0.89665   0.99697   0.0000000000
O          O       0.00256   0.92980   0.98977   0.0000000000
C          C       0.95239   0.79069   0.06767   0.0000000000
C          C       0.97646   0.85789   0.03038   0.0000000000
C          C       0.94450   0.82482   0.03731   0.0000000000
O          O       0.92353   0.89915   0.97541   0.0000000000
C          C       0.06973   0.01781   0.00543   0.0000000000
C          C       0.90449   0.83812   0.88501   0.0000000000
H          H       0.09175   0.03885   0.02630   0.0000000000
H          H       0.07284   0.02905   0.97039   0.0000000000
H          H       0.08167   0.98293   0.00766   0.0000000000
H          H       0.88368   0.81612   0.86387   0.0000000000
H          H       0.90528   0.82397   0.91911   0.0000000000
H          H       0.93886   0.83794   0.87153   0.0000000000
H          H       0.92734   0.76519   0.07173   0.0000000000
H          H       0.05704   0.82045   0.09941   0.0000000000
H          H       0.91341   0.82508   0.01918   0.0000000000
H          H       0.04255   0.88031   0.04792   0.0000000000
C          C       0.66625   0.43020   0.27257   0.0000000000
C          C       0.01680   0.14421   0.44651   0.0000000000
C          C       0.99183   0.21057   0.40692   0.0000000000
B          B       0.96738   0.10335   0.50303   0.0000000000
O          O       0.00256   0.07020   0.51023   0.0000000000
C          C       0.95239   0.20931   0.43233   0.0000000000
C          C       0.97646   0.14211   0.46962   0.0000000000
C          C       0.94450   0.17518   0.46269   0.0000000000
O          O       0.92353   0.10085   0.52459   0.0000000000
C          C       0.06973   0.98219   0.49457   0.0000000000
C          C       0.90449   0.16188   0.61499   0.0000000000
H          H       0.09175   0.96115   0.47370   0.0000000000
H          H       0.07284   0.97095   0.52961   0.0000000000
H          H       0.08167   0.01707   0.49234   0.0000000000
H          H       0.88368   0.18388   0.63613   0.0000000000
H          H       0.90528   0.17603   0.58089   0.0000000000
H          H       0.93886   0.16206   0.62847   0.0000000000
H          H       0.92734   0.23481   0.42827   0.0000000000
H          H       0.05704   0.17955   0.40059   0.0000000000
H          H       0.91341   0.17492   0.48082   0.0000000000
H          H       0.04255   0.11969   0.45208   0.0000000000
C          C       0.66625   0.56980   0.22743   0.0000000000
C          C       0.51680   0.64421   0.94651   0.0000000000
C          C       0.49183   0.71057   0.90692   0.0000000000
B          B       0.46738   0.60335   0.00303   0.0000000000
O          O       0.50256   0.57020   0.01023   0.0000000000
C          C       0.45239   0.70931   0.93233   0.0000000000
C          C       0.47646   0.64211   0.96962   0.0000000000
C          C       0.44450   0.67518   0.96269   0.0000000000
O          O       0.42353   0.60085   0.02459   0.0000000000
C          C       0.56973   0.48219   0.99457   0.0000000000
C          C       0.40449   0.66188   0.11499   0.0000000000
H          H       0.59175   0.46115   0.97370   0.0000000000
H          H       0.57284   0.47095   0.02961   0.0000000000
H          H       0.58167   0.51707   0.99234   0.0000000000
H          H       0.38368   0.68388   0.13613   0.0000000000
H          H       0.40528   0.67603   0.08089   0.0000000000
H          H       0.43886   0.66206   0.12847   0.0000000000
H          H       0.42734   0.73481   0.92827   0.0000000000
H          H       0.55704   0.67955   0.90059   0.0000000000
H          H       0.41341   0.67492   0.98082   0.0000000000
H          H       0.54255   0.61969   0.95208   0.0000000000
C          C       0.16625   0.06980   0.72743   0.0000000000
Si         Si      0.76492   0.73508   0.26492   0.0000000000
C          C       0.72868   0.77132   0.22868   0.0000000000
C          C       0.86446   0.63554   0.36446   0.0000000000
Si         Si      0.82821   0.67179   0.32821   0.0000000000
Si         Si      0.26492   0.23508   0.76492   0.0000000000
C          C       0.22868   0.27132   0.72868   0.0000000000
C          C       0.36446   0.13554   0.86446   0.0000000000
Si         Si      0.32821   0.17179   0.82821   0.0000000000
Si         Si      0.73508   0.26492   0.76492   0.0000000000
C          C       0.77132   0.22868   0.72868   0.0000000000
C          C       0.63554   0.36446   0.86446   0.0000000000
Si         Si      0.67179   0.32821   0.82821   0.0000000000
Si         Si      0.23508   0.76492   0.26492   0.0000000000
C          C       0.27132   0.72868   0.22868   0.0000000000
C          C       0.13554   0.86446   0.36446   0.0000000000
Si         Si      0.17179   0.82821   0.32821   0.0000000000
Si         Si      0.23508   0.23508   0.23508   0.0000000000
C          C       0.27132   0.27132   0.27132   0.0000000000
C          C       0.13554   0.13554   0.13554   0.0000000000
Si         Si      0.17179   0.17179   0.17179   0.0000000000
Si         Si      0.73508   0.73508   0.73508   0.0000000000
C          C       0.77132   0.77132   0.77132   0.0000000000
C          C       0.63554   0.63554   0.63554   0.0000000000
Si         Si      0.67179   0.67179   0.67179   0.0000000000
Si         Si      0.26492   0.76492   0.73508   0.0000000000
C          C       0.22868   0.72868   0.77132   0.0000000000
C          C       0.36446   0.86446   0.63554   0.0000000000
Si         Si      0.32821   0.82821   0.67179   0.0000000000
Si         Si      0.76492   0.26492   0.23508   0.0000000000
C          C       0.72868   0.22868   0.27132   0.0000000000
C          C       0.86446   0.36446   0.13554   0.0000000000
Si         Si      0.82821   0.32821   0.17179   0.0000000000
Si         Si      0.98508   0.01492   0.51492   0.0000000000
C          C       0.02132   0.97868   0.47868   0.0000000000
C          C       0.88554   0.11446   0.61446   0.0000000000
Si         Si      0.92179   0.07821   0.57821   0.0000000000
Si         Si      0.48508   0.51492   0.01492   0.0000000000
C          C       0.52132   0.47868   0.97868   0.0000000000
C          C       0.38554   0.61446   0.11446   0.0000000000
Si         Si      0.42179   0.57821   0.07821   0.0000000000
Si         Si      0.51492   0.98508   0.01492   0.0000000000
C          C       0.47868   0.02132   0.97868   0.0000000000
C          C       0.61446   0.88554   0.11446   0.0000000000
Si         Si      0.57821   0.92179   0.07821   0.0000000000
Si         Si      0.01492   0.48508   0.51492   0.0000000000
C          C       0.97868   0.52132   0.47868   0.0000000000
C          C       0.11446   0.38554   0.61446   0.0000000000
Si         Si      0.07821   0.42179   0.57821   0.0000000000
Si         Si      0.48508   0.48508   0.48508   0.0000000000
C          C       0.52132   0.52132   0.52132   0.0000000000
C          C       0.38554   0.38554   0.38554   0.0000000000
Si         Si      0.42179   0.42179   0.42179   0.0000000000
Si         Si      0.98508   0.98508   0.98508   0.0000000000
C          C       0.02132   0.02132   0.02132   0.0000000000
C          C       0.88554   0.88554   0.88554   0.0000000000
Si         Si      0.92179   0.92179   0.92179   0.0000000000
Si         Si      0.01492   0.51492   0.98508   0.0000000000
C          C       0.97868   0.47868   0.02132   0.0000000000
C          C       0.11446   0.61446   0.88554   0.0000000000
Si         Si      0.07821   0.57821   0.92179   0.0000000000
Si         Si      0.51492   0.01492   0.48508   0.0000000000
C          C       0.47868   0.97868   0.52132   0.0000000000
C          C       0.61446   0.11446   0.38554   0.0000000000
Si         Si      0.57821   0.07821   0.42179   0.0000000000
C          C       0.37500   0.00000   0.25000   0.0000000000
C          C       0.12500   0.00000   0.75000   0.0000000000
C          C       0.62500   0.50000   0.25000   0.0000000000
C          C       0.87500   0.50000   0.75000   0.0000000000
C          C       0.25000   0.37500   0.00000   0.0000000000
C          C       0.75000   0.12500   0.00000   0.0000000000
C          C       0.25000   0.62500   0.50000   0.0000000000
C          C       0.75000   0.87500   0.50000   0.0000000000
C          C       0.00000   0.25000   0.37500   0.0000000000
C          C       0.00000   0.75000   0.12500   0.0000000000
C          C       0.50000   0.25000   0.62500   0.0000000000
C          C       0.50000   0.75000   0.87500   0.0000000000
