data_COF-202
_audit_creation_date              0000-00-00
_audit_creation_method            'LanYouShi'
_symmetry_space_group_name_H-M    'P1'
_cell_length_a                    30.1051006
_cell_length_b                    30.1051006
_cell_length_c                    30.1051006
_cell_angle_alpha                 90.0000000
_cell_angle_beta                  90.0000000
_cell_angle_gamma                 90.0000000
loop_
_atom_site_label
_atom_site_type_symbol
_atom_site_fract_x
_atom_site_fract_y
_atom_site_fract_z
_atom_site_U_iso_or_equiv
_atom_site_adp_type
_atom_site_occupancy
        C1          C  0.6965100  0.6057900  0.2332000    0.00000       Uiso       1.00
        C2          C  0.6569200  0.5394300  0.2581700    0.00000       Uiso       1.00
        B1          B  0.7530300  0.6466500  0.2826200    0.00000       Uiso       1.00
        O1          O  0.7602300  0.6798000  0.2474400    0.00000       Uiso       1.00
        C3          C  0.6823300  0.5406900  0.2976100    0.00000       Uiso       1.00
        C4          C  0.7196200  0.6078900  0.2735400    0.00000       Uiso       1.00
        C5          C  0.7126899  0.5748200  0.3055000    0.00000       Uiso       1.00
        O2          O  0.7745900  0.6491500  0.3264700    0.00000       Uiso       1.00
        C6          C  0.7445700  0.7678099  0.1802700    0.00000       Uiso       1.00
        C7          C  0.8649900  0.5881199  0.3455100    0.00000       Uiso       1.00
        H1          H  0.7236999  0.7888500  0.1582500    0.00000       Uiso       1.00
        H2          H  0.7796099  0.7790500  0.1771600    0.00000       Uiso       1.00
        H3          H  0.7423430  0.7329300  0.1683300    0.00000       Uiso       1.00
        H4          H  0.8861300  0.5661200  0.3663200    0.00000       Uiso       1.00
        H5          H  0.8308900  0.5739700  0.3447200    0.00000       Uiso       1.00
        H6          H  0.8784699  0.5879399  0.3111400    0.00000       Uiso       1.00
        H7          H  0.6782700  0.5151900  0.3226600    0.00000       Uiso       1.00
        H8          H  0.6505900  0.5704500  0.1929600    0.00000       Uiso       1.00
        H9          H  0.7308200  0.5750799  0.3365900    0.00000       Uiso       1.00
       H10          H  0.7020800  0.6303100  0.2074500    0.00000       Uiso       1.00
        C8          C  0.4774307  0.1802031  0.5837486    0.00000       Uiso       1.00
        C9          C  0.1965100  0.1057900  0.7332000    0.00000       Uiso       1.00
       C10          C  0.1569200  0.0394300  0.7581699    0.00000       Uiso       1.00
        B2          B  0.2530300  0.1466500  0.7826200    0.00000       Uiso       1.00
        O3          O  0.2602300  0.1798000  0.7474400    0.00000       Uiso       1.00
       C11          C  0.1823300  0.0406900  0.7976100    0.00000       Uiso       1.00
       C12          C  0.2196200  0.1078900  0.7735400    0.00000       Uiso       1.00
       C13          C  0.2126900  0.0748200  0.8055000    0.00000       Uiso       1.00
        O4          O  0.2745900  0.1491500  0.8264700    0.00000       Uiso       1.00
       C14          C  0.2445700  0.2678100  0.6802700    0.00000       Uiso       1.00
       C15          C  0.3649900  0.0881200  0.8455099    0.00000       Uiso       1.00
       H11          H  0.2237000  0.2888500  0.6582500    0.00000       Uiso       1.00
       H12          H  0.2796100  0.2790500  0.6771600    0.00000       Uiso       1.00
       H13          H  0.2423430  0.2329300  0.6683300    0.00000       Uiso       1.00
       H14          H  0.3861299  0.0661200  0.8663200    0.00000       Uiso       1.00
       H15          H  0.3308900  0.0739700  0.8447199    0.00000       Uiso       1.00
       H16          H  0.3784700  0.0879400  0.8111400    0.00000       Uiso       1.00
       H17          H  0.1782700  0.0151900  0.8226600    0.00000       Uiso       1.00
       H18          H  0.1505900  0.0704500  0.6929600    0.00000       Uiso       1.00
       H19          H  0.2308200  0.0750800  0.8365900    0.00000       Uiso       1.00
       H20          H  0.2020800  0.1303100  0.7074500    0.00000       Uiso       1.00
       C16          C  0.9774307  0.6802031  0.0837486    0.00000       Uiso       1.00
       C17          C  0.8034900  0.3942100  0.7332000    0.00000       Uiso       1.00
       C18          C  0.8430800  0.4605700  0.7581699    0.00000       Uiso       1.00
        B3          B  0.7469699  0.3533500  0.7826200    0.00000       Uiso       1.00
        O5          O  0.7397699  0.3202000  0.7474400    0.00000       Uiso       1.00
       C19          C  0.8176700  0.4593100  0.7976100    0.00000       Uiso       1.00
       C20          C  0.7803800  0.3921100  0.7735400    0.00000       Uiso       1.00
       C21          C  0.7873100  0.4251800  0.8055000    0.00000       Uiso       1.00
        O6          O  0.7254100  0.3508500  0.8264700    0.00000       Uiso       1.00
       C22          C  0.7554299  0.2321900  0.6802700    0.00000       Uiso       1.00
       C23          C  0.6350099  0.4118800  0.8455099    0.00000       Uiso       1.00
       H21          H  0.7763000  0.2111500  0.6582500    0.00000       Uiso       1.00
       H22          H  0.7203900  0.2209500  0.6771600    0.00000       Uiso       1.00
       H23          H  0.7576570  0.2670700  0.6683300    0.00000       Uiso       1.00
       H24          H  0.6138700  0.4338800  0.8663200    0.00000       Uiso       1.00
       H25          H  0.6691100  0.4260300  0.8447199    0.00000       Uiso       1.00
       H26          H  0.6215300  0.4120600  0.8111400    0.00000       Uiso       1.00
       H27          H  0.8217300  0.4848100  0.8226600    0.00000       Uiso       1.00
       H28          H  0.8494100  0.4295500  0.6929600    0.00000       Uiso       1.00
       H29          H  0.7691800  0.4249200  0.8365900    0.00000       Uiso       1.00
       H30          H  0.7979200  0.3696900  0.7074500    0.00000       Uiso       1.00
       C24          C  0.0225693  0.8197969  0.0837486    0.00000       Uiso       1.00
       C25          C  0.3034900  0.8942099  0.2332000    0.00000       Uiso       1.00
       C26          C  0.3430800  0.9605699  0.2581700    0.00000       Uiso       1.00
        B4          B  0.2469700  0.8533500  0.2826200    0.00000       Uiso       1.00
        O7          O  0.2397700  0.8202000  0.2474400    0.00000       Uiso       1.00
       C27          C  0.3176700  0.9593100  0.2976100    0.00000       Uiso       1.00
       C28          C  0.2803800  0.8921100  0.2735400    0.00000       Uiso       1.00
       C29          C  0.2873100  0.9251800  0.3055000    0.00000       Uiso       1.00
        O8          O  0.2254100  0.8508499  0.3264700    0.00000       Uiso       1.00
       C30          C  0.2554300  0.7321900  0.1802700    0.00000       Uiso       1.00
       C31          C  0.1350100  0.9118800  0.3455100    0.00000       Uiso       1.00
       H31          H  0.2763000  0.7111499  0.1582500    0.00000       Uiso       1.00
       H32          H  0.2203900  0.7209499  0.1771600    0.00000       Uiso       1.00
       H33          H  0.2576570  0.7670699  0.1683300    0.00000       Uiso       1.00
       H34          H  0.1138700  0.9338800  0.3663200    0.00000       Uiso       1.00
       H35          H  0.1691100  0.9260300  0.3447200    0.00000       Uiso       1.00
       H36          H  0.1215300  0.9120600  0.3111400    0.00000       Uiso       1.00
       H37          H  0.3217300  0.9848100  0.3226600    0.00000       Uiso       1.00
       H38          H  0.3494100  0.9295500  0.1929600    0.00000       Uiso       1.00
       H39          H  0.2691800  0.9249200  0.3365900    0.00000       Uiso       1.00
       H40          H  0.2979200  0.8696900  0.2074500    0.00000       Uiso       1.00
       C32          C  0.5225693  0.3197969  0.5837486    0.00000       Uiso       1.00
       C33          C  0.3034900  0.1057900  0.2668000    0.00000       Uiso       1.00
       C34          C  0.3430800  0.0394300  0.2418300    0.00000       Uiso       1.00
        B5          B  0.2469700  0.1466500  0.2173800    0.00000       Uiso       1.00
        O9          O  0.2397700  0.1798000  0.2525600    0.00000       Uiso       1.00
       C35          C  0.3176700  0.0406900  0.2023900    0.00000       Uiso       1.00
       C36          C  0.2803800  0.1078900  0.2264600    0.00000       Uiso       1.00
       C37          C  0.2873100  0.0748200  0.1945000    0.00000       Uiso       1.00
       O10          O  0.2254100  0.1491500  0.1735300    0.00000       Uiso       1.00
       C38          C  0.2554300  0.2678100  0.3197300    0.00000       Uiso       1.00
       C39          C  0.1350100  0.0881200  0.1544900    0.00000       Uiso       1.00
       H41          H  0.2763000  0.2888500  0.3417500    0.00000       Uiso       1.00
       H42          H  0.2203900  0.2790500  0.3228400    0.00000       Uiso       1.00
       H43          H  0.2576570  0.2329300  0.3316700    0.00000       Uiso       1.00
       H44          H  0.1138700  0.0661200  0.1336800    0.00000       Uiso       1.00
       H45          H  0.1691100  0.0739700  0.1552800    0.00000       Uiso       1.00
       H46          H  0.1215300  0.0879400  0.1888600    0.00000       Uiso       1.00
       H47          H  0.3217300  0.0151900  0.1773400    0.00000       Uiso       1.00
       H48          H  0.3494100  0.0704500  0.3070400    0.00000       Uiso       1.00
       H49          H  0.2691800  0.0750800  0.1634100    0.00000       Uiso       1.00
       H50          H  0.2979200  0.1303100  0.2925500    0.00000       Uiso       1.00
       C40          C  0.5225693  0.6802031  0.9162514    0.00000       Uiso       1.00
       C41          C  0.8034900  0.6057900  0.7668000    0.00000       Uiso       1.00
       C42          C  0.8430800  0.5394300  0.7418300    0.00000       Uiso       1.00
        B6          B  0.7469699  0.6466500  0.7173800    0.00000       Uiso       1.00
       O11          O  0.7397699  0.6798000  0.7525600    0.00000       Uiso       1.00
       C43          C  0.8176700  0.5406900  0.7023900    0.00000       Uiso       1.00
       C44          C  0.7803800  0.6078900  0.7264600    0.00000       Uiso       1.00
       C45          C  0.7873100  0.5748200  0.6945000    0.00000       Uiso       1.00
       O12          O  0.7254100  0.6491500  0.6735300    0.00000       Uiso       1.00
       C46          C  0.7554299  0.7678099  0.8197300    0.00000       Uiso       1.00
       C47          C  0.6350099  0.5881199  0.6544900    0.00000       Uiso       1.00
       H51          H  0.7763000  0.7888500  0.8417500    0.00000       Uiso       1.00
       H52          H  0.7203900  0.7790500  0.8228400    0.00000       Uiso       1.00
       H53          H  0.7576570  0.7329300  0.8316700    0.00000       Uiso       1.00
       H54          H  0.6138700  0.5661200  0.6336800    0.00000       Uiso       1.00
       H55          H  0.6691100  0.5739700  0.6552800    0.00000       Uiso       1.00
       H56          H  0.6215300  0.5879399  0.6888600    0.00000       Uiso       1.00
       H57          H  0.8217300  0.5151900  0.6773400    0.00000       Uiso       1.00
       H58          H  0.8494100  0.5704500  0.8070400    0.00000       Uiso       1.00
       H59          H  0.7691800  0.5750799  0.6634100    0.00000       Uiso       1.00
       H60          H  0.7979200  0.6303100  0.7925500    0.00000       Uiso       1.00
       C48          C  0.0225693  0.1802031  0.4162514    0.00000       Uiso       1.00
       C49          C  0.1965100  0.8942099  0.7668000    0.00000       Uiso       1.00
       C50          C  0.1569200  0.9605699  0.7418300    0.00000       Uiso       1.00
        B7          B  0.2530300  0.8533500  0.7173800    0.00000       Uiso       1.00
       O13          O  0.2602300  0.8202000  0.7525600    0.00000       Uiso       1.00
       C51          C  0.1823300  0.9593100  0.7023900    0.00000       Uiso       1.00
       C52          C  0.2196200  0.8921100  0.7264600    0.00000       Uiso       1.00
       C53          C  0.2126900  0.9251800  0.6945000    0.00000       Uiso       1.00
       O14          O  0.2745900  0.8508499  0.6735300    0.00000       Uiso       1.00
       C54          C  0.2445700  0.7321900  0.8197300    0.00000       Uiso       1.00
       C55          C  0.3649900  0.9118800  0.6544900    0.00000       Uiso       1.00
       H61          H  0.2237000  0.7111499  0.8417500    0.00000       Uiso       1.00
       H62          H  0.2796100  0.7209499  0.8228400    0.00000       Uiso       1.00
       H63          H  0.2423430  0.7670699  0.8316700    0.00000       Uiso       1.00
       H64          H  0.3861299  0.9338800  0.6336800    0.00000       Uiso       1.00
       H65          H  0.3308900  0.9260300  0.6552800    0.00000       Uiso       1.00
       H66          H  0.3784700  0.9120600  0.6888600    0.00000       Uiso       1.00
       H67          H  0.1782700  0.9848100  0.6773400    0.00000       Uiso       1.00
       H68          H  0.1505900  0.9295500  0.8070400    0.00000       Uiso       1.00
       H69          H  0.2308200  0.9249200  0.6634100    0.00000       Uiso       1.00
       H70          H  0.2020800  0.8696900  0.7925500    0.00000       Uiso       1.00
       C56          C  0.9774307  0.3197969  0.4162514    0.00000       Uiso       1.00
       C57          C  0.6965100  0.3942100  0.2668000    0.00000       Uiso       1.00
       C58          C  0.6569200  0.4605700  0.2418300    0.00000       Uiso       1.00
        B8          B  0.7530300  0.3533500  0.2173800    0.00000       Uiso       1.00
       O15          O  0.7602300  0.3202000  0.2525600    0.00000       Uiso       1.00
       C59          C  0.6823300  0.4593100  0.2023900    0.00000       Uiso       1.00
       C60          C  0.7196200  0.3921100  0.2264600    0.00000       Uiso       1.00
       C61          C  0.7126899  0.4251800  0.1945000    0.00000       Uiso       1.00
       O16          O  0.7745900  0.3508500  0.1735300    0.00000       Uiso       1.00
       C62          C  0.7445700  0.2321900  0.3197300    0.00000       Uiso       1.00
       C63          C  0.8649900  0.4118800  0.1544900    0.00000       Uiso       1.00
       H71          H  0.7236999  0.2111500  0.3417500    0.00000       Uiso       1.00
       H72          H  0.7796099  0.2209500  0.3228400    0.00000       Uiso       1.00
       H73          H  0.7423430  0.2670700  0.3316700    0.00000       Uiso       1.00
       H74          H  0.8861300  0.4338800  0.1336800    0.00000       Uiso       1.00
       H75          H  0.8308900  0.4260300  0.1552800    0.00000       Uiso       1.00
       H76          H  0.8784699  0.4120600  0.1888600    0.00000       Uiso       1.00
       H77          H  0.6782700  0.4848100  0.1773400    0.00000       Uiso       1.00
       H78          H  0.6505900  0.4295500  0.3070400    0.00000       Uiso       1.00
       H79          H  0.7308200  0.4249200  0.1634100    0.00000       Uiso       1.00
       H80          H  0.7020800  0.3696900  0.2925500    0.00000       Uiso       1.00
       C64          C  0.4774307  0.8197969  0.9162514    0.00000       Uiso       1.00
       C65          C  0.2332000  0.6965100  0.6057900    0.00000       Uiso       1.00
       C66          C  0.2581700  0.6569200  0.5394300    0.00000       Uiso       1.00
        B9          B  0.2826200  0.7530300  0.6466500    0.00000       Uiso       1.00
       O17          O  0.2474400  0.7602300  0.6798000    0.00000       Uiso       1.00
       C67          C  0.2976100  0.6823300  0.5406900    0.00000       Uiso       1.00
       C68          C  0.2735400  0.7196200  0.6078900    0.00000       Uiso       1.00
       C69          C  0.3055000  0.7126899  0.5748200    0.00000       Uiso       1.00
       O18          O  0.3264700  0.7745900  0.6491500    0.00000       Uiso       1.00
       C70          C  0.1802700  0.7445700  0.7678099    0.00000       Uiso       1.00
       C71          C  0.3455100  0.8649900  0.5881199    0.00000       Uiso       1.00
       H81          H  0.1582500  0.7236999  0.7888500    0.00000       Uiso       1.00
       H82          H  0.1771600  0.7796099  0.7790500    0.00000       Uiso       1.00
       H83          H  0.1683300  0.7423430  0.7329300    0.00000       Uiso       1.00
       H84          H  0.3663200  0.8861300  0.5661200    0.00000       Uiso       1.00
       H85          H  0.3447200  0.8308900  0.5739700    0.00000       Uiso       1.00
       H86          H  0.3111400  0.8784699  0.5879399    0.00000       Uiso       1.00
       H87          H  0.3226600  0.6782700  0.5151900    0.00000       Uiso       1.00
       H88          H  0.1929600  0.6505900  0.5704500    0.00000       Uiso       1.00
       H89          H  0.3365900  0.7308200  0.5750799    0.00000       Uiso       1.00
       H90          H  0.2074500  0.7020800  0.6303100    0.00000       Uiso       1.00
       C72          C  0.5837486  0.4774307  0.1802031    0.00000       Uiso       1.00
       C73          C  0.7332000  0.1965100  0.1057900    0.00000       Uiso       1.00
       C74          C  0.7581699  0.1569200  0.0394300    0.00000       Uiso       1.00
       B10          B  0.7826200  0.2530300  0.1466500    0.00000       Uiso       1.00
       O19          O  0.7474400  0.2602300  0.1798000    0.00000       Uiso       1.00
       C75          C  0.7976100  0.1823300  0.0406900    0.00000       Uiso       1.00
       C76          C  0.7735400  0.2196200  0.1078900    0.00000       Uiso       1.00
       C77          C  0.8055000  0.2126900  0.0748200    0.00000       Uiso       1.00
       O20          O  0.8264700  0.2745900  0.1491500    0.00000       Uiso       1.00
       C78          C  0.6802700  0.2445700  0.2678100    0.00000       Uiso       1.00
       C79          C  0.8455099  0.3649900  0.0881200    0.00000       Uiso       1.00
       H91          H  0.6582500  0.2237000  0.2888500    0.00000       Uiso       1.00
       H92          H  0.6771600  0.2796100  0.2790500    0.00000       Uiso       1.00
       H93          H  0.6683300  0.2423430  0.2329300    0.00000       Uiso       1.00
       H94          H  0.8663200  0.3861299  0.0661200    0.00000       Uiso       1.00
       H95          H  0.8447199  0.3308900  0.0739700    0.00000       Uiso       1.00
       H96          H  0.8111400  0.3784700  0.0879400    0.00000       Uiso       1.00
       H97          H  0.8226600  0.1782700  0.0151900    0.00000       Uiso       1.00
       H98          H  0.6929600  0.1505900  0.0704500    0.00000       Uiso       1.00
       H99          H  0.8365900  0.2308200  0.0750800    0.00000       Uiso       1.00
      H100          H  0.7074500  0.2020800  0.1303100    0.00000       Uiso       1.00
       C80          C  0.0837486  0.9774307  0.6802031    0.00000       Uiso       1.00
       C81          C  0.7332000  0.8034900  0.3942100    0.00000       Uiso       1.00
       C82          C  0.7581699  0.8430800  0.4605700    0.00000       Uiso       1.00
       B11          B  0.7826200  0.7469699  0.3533500    0.00000       Uiso       1.00
       O21          O  0.7474400  0.7397699  0.3202000    0.00000       Uiso       1.00
       C83          C  0.7976100  0.8176700  0.4593100    0.00000       Uiso       1.00
       C84          C  0.7735400  0.7803800  0.3921100    0.00000       Uiso       1.00
       C85          C  0.8055000  0.7873100  0.4251800    0.00000       Uiso       1.00
       O22          O  0.8264700  0.7254100  0.3508500    0.00000       Uiso       1.00
       C86          C  0.6802700  0.7554299  0.2321900    0.00000       Uiso       1.00
       C87          C  0.8455099  0.6350099  0.4118800    0.00000       Uiso       1.00
      H101          H  0.6582500  0.7763000  0.2111500    0.00000       Uiso       1.00
      H102          H  0.6771600  0.7203900  0.2209500    0.00000       Uiso       1.00
      H103          H  0.6683300  0.7576570  0.2670700    0.00000       Uiso       1.00
      H104          H  0.8663200  0.6138700  0.4338800    0.00000       Uiso       1.00
      H105          H  0.8447199  0.6691100  0.4260300    0.00000       Uiso       1.00
      H106          H  0.8111400  0.6215300  0.4120600    0.00000       Uiso       1.00
      H107          H  0.8226600  0.8217300  0.4848100    0.00000       Uiso       1.00
      H108          H  0.6929600  0.8494100  0.4295500    0.00000       Uiso       1.00
      H109          H  0.8365900  0.7691800  0.4249200    0.00000       Uiso       1.00
      H110          H  0.7074500  0.7979200  0.3696900    0.00000       Uiso       1.00
       C88          C  0.0837486  0.0225693  0.8197969    0.00000       Uiso       1.00
       C89          C  0.2332000  0.3034900  0.8942099    0.00000       Uiso       1.00
       C90          C  0.2581700  0.3430800  0.9605699    0.00000       Uiso       1.00
       B12          B  0.2826200  0.2469700  0.8533500    0.00000       Uiso       1.00
       O23          O  0.2474400  0.2397700  0.8202000    0.00000       Uiso       1.00
       C91          C  0.2976100  0.3176700  0.9593100    0.00000       Uiso       1.00
       C92          C  0.2735400  0.2803800  0.8921100    0.00000       Uiso       1.00
       C93          C  0.3055000  0.2873100  0.9251800    0.00000       Uiso       1.00
       O24          O  0.3264700  0.2254100  0.8508499    0.00000       Uiso       1.00
       C94          C  0.1802700  0.2554300  0.7321900    0.00000       Uiso       1.00
       C95          C  0.3455100  0.1350100  0.9118800    0.00000       Uiso       1.00
      H111          H  0.1582500  0.2763000  0.7111499    0.00000       Uiso       1.00
      H112          H  0.1771600  0.2203900  0.7209499    0.00000       Uiso       1.00
      H113          H  0.1683300  0.2576570  0.7670699    0.00000       Uiso       1.00
      H114          H  0.3663200  0.1138700  0.9338800    0.00000       Uiso       1.00
      H115          H  0.3447200  0.1691100  0.9260300    0.00000       Uiso       1.00
      H116          H  0.3111400  0.1215300  0.9120600    0.00000       Uiso       1.00
      H117          H  0.3226600  0.3217300  0.9848100    0.00000       Uiso       1.00
      H118          H  0.1929600  0.3494100  0.9295500    0.00000       Uiso       1.00
      H119          H  0.3365900  0.2691800  0.9249200    0.00000       Uiso       1.00
      H120          H  0.2074500  0.2979200  0.8696900    0.00000       Uiso       1.00
       C96          C  0.5837486  0.5225693  0.3197969    0.00000       Uiso       1.00
       C97          C  0.2668000  0.3034900  0.1057900    0.00000       Uiso       1.00
       C98          C  0.2418300  0.3430800  0.0394300    0.00000       Uiso       1.00
       B13          B  0.2173800  0.2469700  0.1466500    0.00000       Uiso       1.00
       O25          O  0.2525600  0.2397700  0.1798000    0.00000       Uiso       1.00
       C99          C  0.2023900  0.3176700  0.0406900    0.00000       Uiso       1.00
      C100          C  0.2264600  0.2803800  0.1078900    0.00000       Uiso       1.00
      C101          C  0.1945000  0.2873100  0.0748200    0.00000       Uiso       1.00
       O26          O  0.1735300  0.2254100  0.1491500    0.00000       Uiso       1.00
      C102          C  0.3197300  0.2554300  0.2678100    0.00000       Uiso       1.00
      C103          C  0.1544900  0.1350100  0.0881200    0.00000       Uiso       1.00
      H121          H  0.3417500  0.2763000  0.2888500    0.00000       Uiso       1.00
      H122          H  0.3228400  0.2203900  0.2790500    0.00000       Uiso       1.00
      H123          H  0.3316700  0.2576570  0.2329300    0.00000       Uiso       1.00
      H124          H  0.1336800  0.1138700  0.0661200    0.00000       Uiso       1.00
      H125          H  0.1552800  0.1691100  0.0739700    0.00000       Uiso       1.00
      H126          H  0.1888600  0.1215300  0.0879400    0.00000       Uiso       1.00
      H127          H  0.1773400  0.3217300  0.0151900    0.00000       Uiso       1.00
      H128          H  0.3070400  0.3494100  0.0704500    0.00000       Uiso       1.00
      H129          H  0.1634100  0.2691800  0.0750800    0.00000       Uiso       1.00
      H130          H  0.2925500  0.2979200  0.1303100    0.00000       Uiso       1.00
      C104          C  0.9162514  0.5225693  0.6802031    0.00000       Uiso       1.00
      C105          C  0.7668000  0.8034900  0.6057900    0.00000       Uiso       1.00
      C106          C  0.7418300  0.8430800  0.5394300    0.00000       Uiso       1.00
       B14          B  0.7173800  0.7469699  0.6466500    0.00000       Uiso       1.00
       O27          O  0.7525600  0.7397699  0.6798000    0.00000       Uiso       1.00
      C107          C  0.7023900  0.8176700  0.5406900    0.00000       Uiso       1.00
      C108          C  0.7264600  0.7803800  0.6078900    0.00000       Uiso       1.00
      C109          C  0.6945000  0.7873100  0.5748200    0.00000       Uiso       1.00
       O28          O  0.6735300  0.7254100  0.6491500    0.00000       Uiso       1.00
      C110          C  0.8197300  0.7554299  0.7678099    0.00000       Uiso       1.00
      C111          C  0.6544900  0.6350099  0.5881199    0.00000       Uiso       1.00
      H131          H  0.8417500  0.7763000  0.7888500    0.00000       Uiso       1.00
      H132          H  0.8228400  0.7203900  0.7790500    0.00000       Uiso       1.00
      H133          H  0.8316700  0.7576570  0.7329300    0.00000       Uiso       1.00
      H134          H  0.6336800  0.6138700  0.5661200    0.00000       Uiso       1.00
      H135          H  0.6552800  0.6691100  0.5739700    0.00000       Uiso       1.00
      H136          H  0.6888600  0.6215300  0.5879399    0.00000       Uiso       1.00
      H137          H  0.6773400  0.8217300  0.5151900    0.00000       Uiso       1.00
      H138          H  0.8070400  0.8494100  0.5704500    0.00000       Uiso       1.00
      H139          H  0.6634100  0.7691800  0.5750799    0.00000       Uiso       1.00
      H140          H  0.7925500  0.7979200  0.6303100    0.00000       Uiso       1.00
      C112          C  0.4162514  0.0225693  0.1802031    0.00000       Uiso       1.00
      C113          C  0.7668000  0.1965100  0.8942099    0.00000       Uiso       1.00
      C114          C  0.7418300  0.1569200  0.9605699    0.00000       Uiso       1.00
       B15          B  0.7173800  0.2530300  0.8533500    0.00000       Uiso       1.00
       O29          O  0.7525600  0.2602300  0.8202000    0.00000       Uiso       1.00
      C115          C  0.7023900  0.1823300  0.9593100    0.00000       Uiso       1.00
      C116          C  0.7264600  0.2196200  0.8921100    0.00000       Uiso       1.00
      C117          C  0.6945000  0.2126900  0.9251800    0.00000       Uiso       1.00
       O30          O  0.6735300  0.2745900  0.8508499    0.00000       Uiso       1.00
      C118          C  0.8197300  0.2445700  0.7321900    0.00000       Uiso       1.00
      C119          C  0.6544900  0.3649900  0.9118800    0.00000       Uiso       1.00
      H141          H  0.8417500  0.2237000  0.7111499    0.00000       Uiso       1.00
      H142          H  0.8228400  0.2796100  0.7209499    0.00000       Uiso       1.00
      H143          H  0.8316700  0.2423430  0.7670699    0.00000       Uiso       1.00
      H144          H  0.6336800  0.3861299  0.9338800    0.00000       Uiso       1.00
      H145          H  0.6552800  0.3308900  0.9260300    0.00000       Uiso       1.00
      H146          H  0.6888600  0.3784700  0.9120600    0.00000       Uiso       1.00
      H147          H  0.6773400  0.1782700  0.9848100    0.00000       Uiso       1.00
      H148          H  0.8070400  0.1505900  0.9295500    0.00000       Uiso       1.00
      H149          H  0.6634100  0.2308200  0.9249200    0.00000       Uiso       1.00
      H150          H  0.7925500  0.2020800  0.8696900    0.00000       Uiso       1.00
      C120          C  0.4162514  0.9774307  0.3197969    0.00000       Uiso       1.00
      C121          C  0.2668000  0.6965100  0.3942100    0.00000       Uiso       1.00
      C122          C  0.2418300  0.6569200  0.4605700    0.00000       Uiso       1.00
       B16          B  0.2173800  0.7530300  0.3533500    0.00000       Uiso       1.00
       O31          O  0.2525600  0.7602300  0.3202000    0.00000       Uiso       1.00
      C123          C  0.2023900  0.6823300  0.4593100    0.00000       Uiso       1.00
      C124          C  0.2264600  0.7196200  0.3921100    0.00000       Uiso       1.00
      C125          C  0.1945000  0.7126899  0.4251800    0.00000       Uiso       1.00
       O32          O  0.1735300  0.7745900  0.3508500    0.00000       Uiso       1.00
      C126          C  0.3197300  0.7445700  0.2321900    0.00000       Uiso       1.00
      C127          C  0.1544900  0.8649900  0.4118800    0.00000       Uiso       1.00
      H151          H  0.3417500  0.7236999  0.2111500    0.00000       Uiso       1.00
      H152          H  0.3228400  0.7796099  0.2209500    0.00000       Uiso       1.00
      H153          H  0.3316700  0.7423430  0.2670700    0.00000       Uiso       1.00
      H154          H  0.1336800  0.8861300  0.4338800    0.00000       Uiso       1.00
      H155          H  0.1552800  0.8308900  0.4260300    0.00000       Uiso       1.00
      H156          H  0.1888600  0.8784699  0.4120600    0.00000       Uiso       1.00
      H157          H  0.1773400  0.6782700  0.4848100    0.00000       Uiso       1.00
      H158          H  0.3070400  0.6505900  0.4295500    0.00000       Uiso       1.00
      H159          H  0.1634100  0.7308200  0.4249200    0.00000       Uiso       1.00
      H160          H  0.2925500  0.7020800  0.3696900    0.00000       Uiso       1.00
      C128          C  0.9162514  0.4774307  0.8197969    0.00000       Uiso       1.00
      C129          C  0.6057900  0.2332000  0.6965100    0.00000       Uiso       1.00
      C130          C  0.5394300  0.2581700  0.6569200    0.00000       Uiso       1.00
       B17          B  0.6466500  0.2826200  0.7530300    0.00000       Uiso       1.00
       O33          O  0.6798000  0.2474400  0.7602300    0.00000       Uiso       1.00
      C131          C  0.5406900  0.2976100  0.6823300    0.00000       Uiso       1.00
      C132          C  0.6078900  0.2735400  0.7196200    0.00000       Uiso       1.00
      C133          C  0.5748200  0.3055000  0.7126899    0.00000       Uiso       1.00
       O34          O  0.6491500  0.3264700  0.7745900    0.00000       Uiso       1.00
      C134          C  0.7678099  0.1802700  0.7445700    0.00000       Uiso       1.00
      C135          C  0.5881199  0.3455100  0.8649900    0.00000       Uiso       1.00
      H161          H  0.7888500  0.1582500  0.7236999    0.00000       Uiso       1.00
      H162          H  0.7790500  0.1771600  0.7796099    0.00000       Uiso       1.00
      H163          H  0.7329300  0.1683300  0.7423430    0.00000       Uiso       1.00
      H164          H  0.5661200  0.3663200  0.8861300    0.00000       Uiso       1.00
      H165          H  0.5739700  0.3447200  0.8308900    0.00000       Uiso       1.00
      H166          H  0.5879399  0.3111400  0.8784699    0.00000       Uiso       1.00
      H167          H  0.5151900  0.3226600  0.6782700    0.00000       Uiso       1.00
      H168          H  0.5704500  0.1929600  0.6505900    0.00000       Uiso       1.00
      H169          H  0.5750799  0.3365900  0.7308200    0.00000       Uiso       1.00
      H170          H  0.6303100  0.2074500  0.7020800    0.00000       Uiso       1.00
      C136          C  0.1802031  0.5837486  0.4774307    0.00000       Uiso       1.00
      C137          C  0.1057900  0.7332000  0.1965100    0.00000       Uiso       1.00
      C138          C  0.0394300  0.7581699  0.1569200    0.00000       Uiso       1.00
       B18          B  0.1466500  0.7826200  0.2530300    0.00000       Uiso       1.00
       O35          O  0.1798000  0.7474400  0.2602300    0.00000       Uiso       1.00
      C139          C  0.0406900  0.7976100  0.1823300    0.00000       Uiso       1.00
      C140          C  0.1078900  0.7735400  0.2196200    0.00000       Uiso       1.00
      C141          C  0.0748200  0.8055000  0.2126900    0.00000       Uiso       1.00
       O36          O  0.1491500  0.8264700  0.2745900    0.00000       Uiso       1.00
      C142          C  0.2678100  0.6802700  0.2445700    0.00000       Uiso       1.00
      C143          C  0.0881200  0.8455099  0.3649900    0.00000       Uiso       1.00
      H171          H  0.2888500  0.6582500  0.2237000    0.00000       Uiso       1.00
      H172          H  0.2790500  0.6771600  0.2796100    0.00000       Uiso       1.00
      H173          H  0.2329300  0.6683300  0.2423430    0.00000       Uiso       1.00
      H174          H  0.0661200  0.8663200  0.3861299    0.00000       Uiso       1.00
      H175          H  0.0739700  0.8447199  0.3308900    0.00000       Uiso       1.00
      H176          H  0.0879400  0.8111400  0.3784700    0.00000       Uiso       1.00
      H177          H  0.0151900  0.8226600  0.1782700    0.00000       Uiso       1.00
      H178          H  0.0704500  0.6929600  0.1505900    0.00000       Uiso       1.00
      H179          H  0.0750800  0.8365900  0.2308200    0.00000       Uiso       1.00
      H180          H  0.1303100  0.7074500  0.2020800    0.00000       Uiso       1.00
      C144          C  0.6802031  0.0837486  0.9774307    0.00000       Uiso       1.00
      C145          C  0.3942100  0.7332000  0.8034900    0.00000       Uiso       1.00
      C146          C  0.4605700  0.7581699  0.8430800    0.00000       Uiso       1.00
       B19          B  0.3533500  0.7826200  0.7469699    0.00000       Uiso       1.00
       O37          O  0.3202000  0.7474400  0.7397699    0.00000       Uiso       1.00
      C147          C  0.4593100  0.7976100  0.8176700    0.00000       Uiso       1.00
      C148          C  0.3921100  0.7735400  0.7803800    0.00000       Uiso       1.00
      C149          C  0.4251800  0.8055000  0.7873100    0.00000       Uiso       1.00
       O38          O  0.3508500  0.8264700  0.7254100    0.00000       Uiso       1.00
      C150          C  0.2321900  0.6802700  0.7554299    0.00000       Uiso       1.00
      C151          C  0.4118800  0.8455099  0.6350099    0.00000       Uiso       1.00
      H181          H  0.2111500  0.6582500  0.7763000    0.00000       Uiso       1.00
      H182          H  0.2209500  0.6771600  0.7203900    0.00000       Uiso       1.00
      H183          H  0.2670700  0.6683300  0.7576570    0.00000       Uiso       1.00
      H184          H  0.4338800  0.8663200  0.6138700    0.00000       Uiso       1.00
      H185          H  0.4260300  0.8447199  0.6691100    0.00000       Uiso       1.00
      H186          H  0.4120600  0.8111400  0.6215300    0.00000       Uiso       1.00
      H187          H  0.4848100  0.8226600  0.8217300    0.00000       Uiso       1.00
      H188          H  0.4295500  0.6929600  0.8494100    0.00000       Uiso       1.00
      H189          H  0.4249200  0.8365900  0.7691800    0.00000       Uiso       1.00
      H190          H  0.3696900  0.7074500  0.7979200    0.00000       Uiso       1.00
      C152          C  0.8197969  0.0837486  0.0225693    0.00000       Uiso       1.00
      C153          C  0.8942099  0.2332000  0.3034900    0.00000       Uiso       1.00
      C154          C  0.9605699  0.2581700  0.3430800    0.00000       Uiso       1.00
       B20          B  0.8533500  0.2826200  0.2469700    0.00000       Uiso       1.00
       O39          O  0.8202000  0.2474400  0.2397700    0.00000       Uiso       1.00
      C155          C  0.9593100  0.2976100  0.3176700    0.00000       Uiso       1.00
      C156          C  0.8921100  0.2735400  0.2803800    0.00000       Uiso       1.00
      C157          C  0.9251800  0.3055000  0.2873100    0.00000       Uiso       1.00
       O40          O  0.8508499  0.3264700  0.2254100    0.00000       Uiso       1.00
      C158          C  0.7321900  0.1802700  0.2554300    0.00000       Uiso       1.00
      C159          C  0.9118800  0.3455100  0.1350100    0.00000       Uiso       1.00
      H191          H  0.7111499  0.1582500  0.2763000    0.00000       Uiso       1.00
      H192          H  0.7209499  0.1771600  0.2203900    0.00000       Uiso       1.00
      H193          H  0.7670699  0.1683300  0.2576570    0.00000       Uiso       1.00
      H194          H  0.9338800  0.3663200  0.1138700    0.00000       Uiso       1.00
      H195          H  0.9260300  0.3447200  0.1691100    0.00000       Uiso       1.00
      H196          H  0.9120600  0.3111400  0.1215300    0.00000       Uiso       1.00
      H197          H  0.9848100  0.3226600  0.3217300    0.00000       Uiso       1.00
      H198          H  0.9295500  0.1929600  0.3494100    0.00000       Uiso       1.00
      H199          H  0.9249200  0.3365900  0.2691800    0.00000       Uiso       1.00
      H200          H  0.8696900  0.2074500  0.2979200    0.00000       Uiso       1.00
      C160          C  0.3197969  0.5837486  0.5225693    0.00000       Uiso       1.00
      C161          C  0.1057900  0.2668000  0.3034900    0.00000       Uiso       1.00
      C162          C  0.0394300  0.2418300  0.3430800    0.00000       Uiso       1.00
       B21          B  0.1466500  0.2173800  0.2469700    0.00000       Uiso       1.00
       O41          O  0.1798000  0.2525600  0.2397700    0.00000       Uiso       1.00
      C163          C  0.0406900  0.2023900  0.3176700    0.00000       Uiso       1.00
      C164          C  0.1078900  0.2264600  0.2803800    0.00000       Uiso       1.00
      C165          C  0.0748200  0.1945000  0.2873100    0.00000       Uiso       1.00
       O42          O  0.1491500  0.1735300  0.2254100    0.00000       Uiso       1.00
      C166          C  0.2678100  0.3197300  0.2554300    0.00000       Uiso       1.00
      C167          C  0.0881200  0.1544900  0.1350100    0.00000       Uiso       1.00
      H201          H  0.2888500  0.3417500  0.2763000    0.00000       Uiso       1.00
      H202          H  0.2790500  0.3228400  0.2203900    0.00000       Uiso       1.00
      H203          H  0.2329300  0.3316700  0.2576570    0.00000       Uiso       1.00
      H204          H  0.0661200  0.1336800  0.1138700    0.00000       Uiso       1.00
      H205          H  0.0739700  0.1552800  0.1691100    0.00000       Uiso       1.00
      H206          H  0.0879400  0.1888600  0.1215300    0.00000       Uiso       1.00
      H207          H  0.0151900  0.1773400  0.3217300    0.00000       Uiso       1.00
      H208          H  0.0704500  0.3070400  0.3494100    0.00000       Uiso       1.00
      H209          H  0.0750800  0.1634100  0.2691800    0.00000       Uiso       1.00
      H210          H  0.1303100  0.2925500  0.2979200    0.00000       Uiso       1.00
      C168          C  0.6802031  0.9162514  0.5225693    0.00000       Uiso       1.00
      C169          C  0.6057900  0.7668000  0.8034900    0.00000       Uiso       1.00
      C170          C  0.5394300  0.7418300  0.8430800    0.00000       Uiso       1.00
       B22          B  0.6466500  0.7173800  0.7469699    0.00000       Uiso       1.00
       O43          O  0.6798000  0.7525600  0.7397699    0.00000       Uiso       1.00
      C171          C  0.5406900  0.7023900  0.8176700    0.00000       Uiso       1.00
      C172          C  0.6078900  0.7264600  0.7803800    0.00000       Uiso       1.00
      C173          C  0.5748200  0.6945000  0.7873100    0.00000       Uiso       1.00
       O44          O  0.6491500  0.6735300  0.7254100    0.00000       Uiso       1.00
      C174          C  0.7678099  0.8197300  0.7554299    0.00000       Uiso       1.00
      C175          C  0.5881199  0.6544900  0.6350099    0.00000       Uiso       1.00
      H211          H  0.7888500  0.8417500  0.7763000    0.00000       Uiso       1.00
      H212          H  0.7790500  0.8228400  0.7203900    0.00000       Uiso       1.00
      H213          H  0.7329300  0.8316700  0.7576570    0.00000       Uiso       1.00
      H214          H  0.5661200  0.6336800  0.6138700    0.00000       Uiso       1.00
      H215          H  0.5739700  0.6552800  0.6691100    0.00000       Uiso       1.00
      H216          H  0.5879399  0.6888600  0.6215300    0.00000       Uiso       1.00
      H217          H  0.5151900  0.6773400  0.8217300    0.00000       Uiso       1.00
      H218          H  0.5704500  0.8070400  0.8494100    0.00000       Uiso       1.00
      H219          H  0.5750799  0.6634100  0.7691800    0.00000       Uiso       1.00
      H220          H  0.6303100  0.7925500  0.7979200    0.00000       Uiso       1.00
      C176          C  0.1802031  0.4162514  0.0225693    0.00000       Uiso       1.00
      C177          C  0.8942099  0.7668000  0.1965100    0.00000       Uiso       1.00
      C178          C  0.9605699  0.7418300  0.1569200    0.00000       Uiso       1.00
       B23          B  0.8533500  0.7173800  0.2530300    0.00000       Uiso       1.00
       O45          O  0.8202000  0.7525600  0.2602300    0.00000       Uiso       1.00
      C179          C  0.9593100  0.7023900  0.1823300    0.00000       Uiso       1.00
      C180          C  0.8921100  0.7264600  0.2196200    0.00000       Uiso       1.00
      C181          C  0.9251800  0.6945000  0.2126900    0.00000       Uiso       1.00
       O46          O  0.8508499  0.6735300  0.2745900    0.00000       Uiso       1.00
      C182          C  0.7321900  0.8197300  0.2445700    0.00000       Uiso       1.00
      C183          C  0.9118800  0.6544900  0.3649900    0.00000       Uiso       1.00
      H221          H  0.7111499  0.8417500  0.2237000    0.00000       Uiso       1.00
      H222          H  0.7209499  0.8228400  0.2796100    0.00000       Uiso       1.00
      H223          H  0.7670699  0.8316700  0.2423430    0.00000       Uiso       1.00
      H224          H  0.9338800  0.6336800  0.3861299    0.00000       Uiso       1.00
      H225          H  0.9260300  0.6552800  0.3308900    0.00000       Uiso       1.00
      H226          H  0.9120600  0.6888600  0.3784700    0.00000       Uiso       1.00
      H227          H  0.9848100  0.6773400  0.1782700    0.00000       Uiso       1.00
      H228          H  0.9295500  0.8070400  0.1505900    0.00000       Uiso       1.00
      H229          H  0.9249200  0.6634100  0.2308200    0.00000       Uiso       1.00
      H230          H  0.8696900  0.7925500  0.2020800    0.00000       Uiso       1.00
      C184          C  0.3197969  0.4162514  0.9774307    0.00000       Uiso       1.00
      C185          C  0.3942100  0.2668000  0.6965100    0.00000       Uiso       1.00
      C186          C  0.4605700  0.2418300  0.6569200    0.00000       Uiso       1.00
       B24          B  0.3533500  0.2173800  0.7530300    0.00000       Uiso       1.00
       O47          O  0.3202000  0.2525600  0.7602300    0.00000       Uiso       1.00
      C187          C  0.4593100  0.2023900  0.6823300    0.00000       Uiso       1.00
      C188          C  0.3921100  0.2264600  0.7196200    0.00000       Uiso       1.00
      C189          C  0.4251800  0.1945000  0.7126899    0.00000       Uiso       1.00
       O48          O  0.3508500  0.1735300  0.7745900    0.00000       Uiso       1.00
      C190          C  0.2321900  0.3197300  0.7445700    0.00000       Uiso       1.00
      C191          C  0.4118800  0.1544900  0.8649900    0.00000       Uiso       1.00
      H231          H  0.2111500  0.3417500  0.7236999    0.00000       Uiso       1.00
      H232          H  0.2209500  0.3228400  0.7796099    0.00000       Uiso       1.00
      H233          H  0.2670700  0.3316700  0.7423430    0.00000       Uiso       1.00
      H234          H  0.4338800  0.1336800  0.8861300    0.00000       Uiso       1.00
      H235          H  0.4260300  0.1552800  0.8308900    0.00000       Uiso       1.00
      H236          H  0.4120600  0.1888600  0.8784699    0.00000       Uiso       1.00
      H237          H  0.4848100  0.1773400  0.6782700    0.00000       Uiso       1.00
      H238          H  0.4295500  0.3070400  0.6505900    0.00000       Uiso       1.00
      H239          H  0.4249200  0.1634100  0.7308200    0.00000       Uiso       1.00
      H240          H  0.3696900  0.2925500  0.7020800    0.00000       Uiso       1.00
      C192          C  0.8197969  0.9162514  0.4774307    0.00000       Uiso       1.00
      C193          C  0.8557900  0.9465100  0.4832000    0.00000       Uiso       1.00
      C194          C  0.7894300  0.9069200  0.5081700    0.00000       Uiso       1.00
       B25          B  0.8966500  0.0030300  0.5326200    0.00000       Uiso       1.00
       O49          O  0.9298000  0.0102300  0.4974400    0.00000       Uiso       1.00
      C195          C  0.7906900  0.9323300  0.5476100    0.00000       Uiso       1.00
      C196          C  0.8578900  0.9696199  0.5235400    0.00000       Uiso       1.00
      C197          C  0.8248199  0.9626899  0.5555000    0.00000       Uiso       1.00
       O50          O  0.8991500  0.0245900  0.5764700    0.00000       Uiso       1.00
      C198          C  0.0178100  0.9945700  0.4302700    0.00000       Uiso       1.00
      C199          C  0.8381200  0.1149900  0.5955100    0.00000       Uiso       1.00
      H241          H  0.0388500  0.9737000  0.4082500    0.00000       Uiso       1.00
      H242          H  0.0290500  0.0296100  0.4271600    0.00000       Uiso       1.00
      H243          H  0.9829299  0.9923430  0.4183300    0.00000       Uiso       1.00
      H244          H  0.8161200  0.1361300  0.6163200    0.00000       Uiso       1.00
      H245          H  0.8239700  0.0808900  0.5947200    0.00000       Uiso       1.00
      H246          H  0.8379400  0.1284700  0.5611399    0.00000       Uiso       1.00
      H247          H  0.7651900  0.9282700  0.5726600    0.00000       Uiso       1.00
      H248          H  0.8204500  0.9005900  0.4429600    0.00000       Uiso       1.00
      H249          H  0.8250800  0.9808199  0.5865899    0.00000       Uiso       1.00
      H250          H  0.8803099  0.9520800  0.4574500    0.00000       Uiso       1.00
      C200          C  0.4302031  0.7274307  0.8337486    0.00000       Uiso       1.00
      C201          C  0.3557900  0.4465100  0.9832000    0.00000       Uiso       1.00
      C202          C  0.2894300  0.4069200  0.0081700    0.00000       Uiso       1.00
       B26          B  0.3966500  0.5030300  0.0326200    0.00000       Uiso       1.00
       O51          O  0.4297999  0.5102300  0.9974400    0.00000       Uiso       1.00
      C203          C  0.2906900  0.4323300  0.0476100    0.00000       Uiso       1.00
      C204          C  0.3578900  0.4696200  0.0235400    0.00000       Uiso       1.00
      C205          C  0.3248200  0.4626900  0.0555000    0.00000       Uiso       1.00
       O52          O  0.3991500  0.5245900  0.0764700    0.00000       Uiso       1.00
      C206          C  0.5178100  0.4945700  0.9302700    0.00000       Uiso       1.00
      C207          C  0.3381200  0.6149900  0.0955100    0.00000       Uiso       1.00
      H251          H  0.5388500  0.4737000  0.9082500    0.00000       Uiso       1.00
      H252          H  0.5290500  0.5296100  0.9271600    0.00000       Uiso       1.00
      H253          H  0.4829300  0.4923430  0.9183300    0.00000       Uiso       1.00
      H254          H  0.3161200  0.6361300  0.1163200    0.00000       Uiso       1.00
      H255          H  0.3239700  0.5808900  0.0947200    0.00000       Uiso       1.00
      H256          H  0.3379399  0.6284700  0.0611400    0.00000       Uiso       1.00
      H257          H  0.2651900  0.4282700  0.0726600    0.00000       Uiso       1.00
      H258          H  0.3204500  0.4005900  0.9429600    0.00000       Uiso       1.00
      H259          H  0.3250799  0.4808200  0.0865900    0.00000       Uiso       1.00
      H260          H  0.3803100  0.4520800  0.9574500    0.00000       Uiso       1.00
      C208          C  0.9302031  0.2274307  0.3337486    0.00000       Uiso       1.00
      C209          C  0.6442100  0.0534900  0.9832000    0.00000       Uiso       1.00
      C210          C  0.7105700  0.0930800  0.0081700    0.00000       Uiso       1.00
       B27          B  0.6033500  0.9969700  0.0326200    0.00000       Uiso       1.00
       O53          O  0.5702000  0.9897700  0.9974400    0.00000       Uiso       1.00
      C211          C  0.7093099  0.0676700  0.0476100    0.00000       Uiso       1.00
      C212          C  0.6421100  0.0303800  0.0235400    0.00000       Uiso       1.00
      C213          C  0.6751800  0.0373100  0.0555000    0.00000       Uiso       1.00
       O54          O  0.6008500  0.9754099  0.0764700    0.00000       Uiso       1.00
      C214          C  0.4821900  0.0054300  0.9302700    0.00000       Uiso       1.00
      C215          C  0.6618800  0.8850100  0.0955100    0.00000       Uiso       1.00
      H261          H  0.4611500  0.0263000  0.9082500    0.00000       Uiso       1.00
      H262          H  0.4709500  0.9703900  0.9271600    0.00000       Uiso       1.00
      H263          H  0.5170700  0.0076570  0.9183300    0.00000       Uiso       1.00
      H264          H  0.6838799  0.8638700  0.1163200    0.00000       Uiso       1.00
      H265          H  0.6760300  0.9191100  0.0947200    0.00000       Uiso       1.00
      H266          H  0.6620600  0.8715299  0.0611400    0.00000       Uiso       1.00
      H267          H  0.7348100  0.0717300  0.0726600    0.00000       Uiso       1.00
      H268          H  0.6795500  0.0994100  0.9429600    0.00000       Uiso       1.00
      H269          H  0.6749200  0.0191800  0.0865900    0.00000       Uiso       1.00
      H270          H  0.6196900  0.0479200  0.9574500    0.00000       Uiso       1.00
      C216          C  0.0697969  0.2725693  0.3337486    0.00000       Uiso       1.00
      C217          C  0.1442100  0.5534899  0.4832000    0.00000       Uiso       1.00
      C218          C  0.2105700  0.5930800  0.5081700    0.00000       Uiso       1.00
       B28          B  0.1033500  0.4969700  0.5326200    0.00000       Uiso       1.00
       O55          O  0.0702000  0.4897700  0.4974400    0.00000       Uiso       1.00
      C219          C  0.2093100  0.5676700  0.5476100    0.00000       Uiso       1.00
      C220          C  0.1421100  0.5303800  0.5235400    0.00000       Uiso       1.00
      C221          C  0.1751800  0.5373100  0.5555000    0.00000       Uiso       1.00
       O56          O  0.1008500  0.4754100  0.5764700    0.00000       Uiso       1.00
      C222          C  0.9821900  0.5054300  0.4302700    0.00000       Uiso       1.00
      C223          C  0.1618800  0.3850100  0.5955100    0.00000       Uiso       1.00
      H271          H  0.9611500  0.5263000  0.4082500    0.00000       Uiso       1.00
      H272          H  0.9709500  0.4703900  0.4271600    0.00000       Uiso       1.00
      H273          H  0.0170700  0.5076570  0.4183300    0.00000       Uiso       1.00
      H274          H  0.1838800  0.3638700  0.6163200    0.00000       Uiso       1.00
      H275          H  0.1760300  0.4191100  0.5947200    0.00000       Uiso       1.00
      H276          H  0.1620600  0.3715300  0.5611399    0.00000       Uiso       1.00
      H277          H  0.2348100  0.5717300  0.5726600    0.00000       Uiso       1.00
      H278          H  0.1795500  0.5994100  0.4429600    0.00000       Uiso       1.00
      H279          H  0.1749200  0.5191800  0.5865899    0.00000       Uiso       1.00
      H280          H  0.1196900  0.5479200  0.4574500    0.00000       Uiso       1.00
      C224          C  0.5697969  0.7725693  0.8337486    0.00000       Uiso       1.00
      C225          C  0.3557900  0.5534899  0.5168000    0.00000       Uiso       1.00
      C226          C  0.2894300  0.5930800  0.4918300    0.00000       Uiso       1.00
       B29          B  0.3966500  0.4969700  0.4673800    0.00000       Uiso       1.00
       O57          O  0.4297999  0.4897700  0.5025600    0.00000       Uiso       1.00
      C227          C  0.2906900  0.5676700  0.4523900    0.00000       Uiso       1.00
      C228          C  0.3578900  0.5303800  0.4764600    0.00000       Uiso       1.00
      C229          C  0.3248200  0.5373100  0.4445000    0.00000       Uiso       1.00
       O58          O  0.3991500  0.4754100  0.4235300    0.00000       Uiso       1.00
      C230          C  0.5178100  0.5054300  0.5697300    0.00000       Uiso       1.00
      C231          C  0.3381200  0.3850100  0.4044900    0.00000       Uiso       1.00
      H281          H  0.5388500  0.5263000  0.5917500    0.00000       Uiso       1.00
      H282          H  0.5290500  0.4703900  0.5728400    0.00000       Uiso       1.00
      H283          H  0.4829300  0.5076570  0.5816700    0.00000       Uiso       1.00
      H284          H  0.3161200  0.3638700  0.3836800    0.00000       Uiso       1.00
      H285          H  0.3239700  0.4191100  0.4052800    0.00000       Uiso       1.00
      H286          H  0.3379399  0.3715300  0.4388600    0.00000       Uiso       1.00
      H287          H  0.2651900  0.5717300  0.4273400    0.00000       Uiso       1.00
      H288          H  0.3204500  0.5994100  0.5570400    0.00000       Uiso       1.00
      H289          H  0.3250799  0.5191800  0.4134100    0.00000       Uiso       1.00
      H290          H  0.3803100  0.5479200  0.5425500    0.00000       Uiso       1.00
      C232          C  0.9302031  0.7725693  0.1662514    0.00000       Uiso       1.00
      C233          C  0.8557900  0.0534900  0.0168000    0.00000       Uiso       1.00
      C234          C  0.7894300  0.0930800  0.9918299    0.00000       Uiso       1.00
       B30          B  0.8966500  0.9969700  0.9673800    0.00000       Uiso       1.00
       O59          O  0.9298000  0.9897700  0.0025600    0.00000       Uiso       1.00
      C235          C  0.7906900  0.0676700  0.9523900    0.00000       Uiso       1.00
      C236          C  0.8578900  0.0303800  0.9764600    0.00000       Uiso       1.00
      C237          C  0.8248199  0.0373100  0.9445000    0.00000       Uiso       1.00
       O60          O  0.8991500  0.9754099  0.9235300    0.00000       Uiso       1.00
      C238          C  0.0178100  0.0054300  0.0697300    0.00000       Uiso       1.00
      C239          C  0.8381200  0.8850100  0.9044899    0.00000       Uiso       1.00
      H291          H  0.0388500  0.0263000  0.0917500    0.00000       Uiso       1.00
      H292          H  0.0290500  0.9703900  0.0728400    0.00000       Uiso       1.00
      H293          H  0.9829299  0.0076570  0.0816700    0.00000       Uiso       1.00
      H294          H  0.8161200  0.8638700  0.8836800    0.00000       Uiso       1.00
      H295          H  0.8239700  0.9191100  0.9052799    0.00000       Uiso       1.00
      H296          H  0.8379400  0.8715299  0.9388600    0.00000       Uiso       1.00
      H297          H  0.7651900  0.0717300  0.9273400    0.00000       Uiso       1.00
      H298          H  0.8204500  0.0994100  0.0570400    0.00000       Uiso       1.00
      H299          H  0.8250800  0.0191800  0.9134100    0.00000       Uiso       1.00
      H300          H  0.8803099  0.0479200  0.0425500    0.00000       Uiso       1.00
      C240          C  0.4302031  0.2725693  0.6662514    0.00000       Uiso       1.00
      C241          C  0.1442100  0.4465100  0.0168000    0.00000       Uiso       1.00
      C242          C  0.2105700  0.4069200  0.9918299    0.00000       Uiso       1.00
       B31          B  0.1033500  0.5030300  0.9673800    0.00000       Uiso       1.00
       O61          O  0.0702000  0.5102300  0.0025600    0.00000       Uiso       1.00
      C243          C  0.2093100  0.4323300  0.9523900    0.00000       Uiso       1.00
      C244          C  0.1421100  0.4696200  0.9764600    0.00000       Uiso       1.00
      C245          C  0.1751800  0.4626900  0.9445000    0.00000       Uiso       1.00
       O62          O  0.1008500  0.5245900  0.9235300    0.00000       Uiso       1.00
      C246          C  0.9821900  0.4945700  0.0697300    0.00000       Uiso       1.00
      C247          C  0.1618800  0.6149900  0.9044899    0.00000       Uiso       1.00
      H301          H  0.9611500  0.4737000  0.0917500    0.00000       Uiso       1.00
      H302          H  0.9709500  0.5296100  0.0728400    0.00000       Uiso       1.00
      H303          H  0.0170700  0.4923430  0.0816700    0.00000       Uiso       1.00
      H304          H  0.1838800  0.6361300  0.8836800    0.00000       Uiso       1.00
      H305          H  0.1760300  0.5808900  0.9052799    0.00000       Uiso       1.00
      H306          H  0.1620600  0.6284700  0.9388600    0.00000       Uiso       1.00
      H307          H  0.2348100  0.4282700  0.9273400    0.00000       Uiso       1.00
      H308          H  0.1795500  0.4005900  0.0570400    0.00000       Uiso       1.00
      H309          H  0.1749200  0.4808200  0.9134100    0.00000       Uiso       1.00
      H310          H  0.1196900  0.4520800  0.0425500    0.00000       Uiso       1.00
      C248          C  0.5697969  0.2274307  0.6662514    0.00000       Uiso       1.00
      C249          C  0.6442100  0.9465100  0.5168000    0.00000       Uiso       1.00
      C250          C  0.7105700  0.9069200  0.4918300    0.00000       Uiso       1.00
       B32          B  0.6033500  0.0030300  0.4673800    0.00000       Uiso       1.00
       O63          O  0.5702000  0.0102300  0.5025600    0.00000       Uiso       1.00
      C251          C  0.7093099  0.9323300  0.4523900    0.00000       Uiso       1.00
      C252          C  0.6421100  0.9696199  0.4764600    0.00000       Uiso       1.00
      C253          C  0.6751800  0.9626899  0.4445000    0.00000       Uiso       1.00
       O64          O  0.6008500  0.0245900  0.4235300    0.00000       Uiso       1.00
      C254          C  0.4821900  0.9945700  0.5697300    0.00000       Uiso       1.00
      C255          C  0.6618800  0.1149900  0.4044900    0.00000       Uiso       1.00
      H311          H  0.4611500  0.9737000  0.5917500    0.00000       Uiso       1.00
      H312          H  0.4709500  0.0296100  0.5728400    0.00000       Uiso       1.00
      H313          H  0.5170700  0.9923430  0.5816700    0.00000       Uiso       1.00
      H314          H  0.6838799  0.1361300  0.3836800    0.00000       Uiso       1.00
      H315          H  0.6760300  0.0808900  0.4052800    0.00000       Uiso       1.00
      H316          H  0.6620600  0.1284700  0.4388600    0.00000       Uiso       1.00
      H317          H  0.7348100  0.9282700  0.4273400    0.00000       Uiso       1.00
      H318          H  0.6795500  0.9005900  0.5570400    0.00000       Uiso       1.00
      H319          H  0.6749200  0.9808199  0.4134100    0.00000       Uiso       1.00
      H320          H  0.6196900  0.9520800  0.5425500    0.00000       Uiso       1.00
      C256          C  0.0697969  0.7274307  0.1662514    0.00000       Uiso       1.00
      C257          C  0.9465100  0.4832000  0.8557900    0.00000       Uiso       1.00
      C258          C  0.9069200  0.5081700  0.7894300    0.00000       Uiso       1.00
       B33          B  0.0030300  0.5326200  0.8966500    0.00000       Uiso       1.00
       O65          O  0.0102300  0.4974400  0.9298000    0.00000       Uiso       1.00
      C259          C  0.9323300  0.5476100  0.7906900    0.00000       Uiso       1.00
      C260          C  0.9696199  0.5235400  0.8578900    0.00000       Uiso       1.00
      C261          C  0.9626899  0.5555000  0.8248199    0.00000       Uiso       1.00
       O66          O  0.0245900  0.5764700  0.8991500    0.00000       Uiso       1.00
      C262          C  0.9945700  0.4302700  0.0178100    0.00000       Uiso       1.00
      C263          C  0.1149900  0.5955100  0.8381200    0.00000       Uiso       1.00
      H321          H  0.9737000  0.4082500  0.0388500    0.00000       Uiso       1.00
      H322          H  0.0296100  0.4271600  0.0290500    0.00000       Uiso       1.00
      H323          H  0.9923430  0.4183300  0.9829299    0.00000       Uiso       1.00
      H324          H  0.1361300  0.6163200  0.8161200    0.00000       Uiso       1.00
      H325          H  0.0808900  0.5947200  0.8239700    0.00000       Uiso       1.00
      H326          H  0.1284700  0.5611399  0.8379400    0.00000       Uiso       1.00
      H327          H  0.9282700  0.5726600  0.7651900    0.00000       Uiso       1.00
      H328          H  0.9005900  0.4429600  0.8204500    0.00000       Uiso       1.00
      H329          H  0.9808199  0.5865899  0.8250800    0.00000       Uiso       1.00
      H330          H  0.9520800  0.4574500  0.8803099    0.00000       Uiso       1.00
      C264          C  0.7274307  0.8337486  0.4302031    0.00000       Uiso       1.00
      C265          C  0.4465100  0.9832000  0.3557900    0.00000       Uiso       1.00
      C266          C  0.4069200  0.0081700  0.2894300    0.00000       Uiso       1.00
       B34          B  0.5030300  0.0326200  0.3966500    0.00000       Uiso       1.00
       O67          O  0.5102300  0.9974400  0.4297999    0.00000       Uiso       1.00
      C267          C  0.4323300  0.0476100  0.2906900    0.00000       Uiso       1.00
      C268          C  0.4696200  0.0235400  0.3578900    0.00000       Uiso       1.00
      C269          C  0.4626900  0.0555000  0.3248200    0.00000       Uiso       1.00
       O68          O  0.5245900  0.0764700  0.3991500    0.00000       Uiso       1.00
      C270          C  0.4945700  0.9302700  0.5178100    0.00000       Uiso       1.00
      C271          C  0.6149900  0.0955100  0.3381200    0.00000       Uiso       1.00
      H331          H  0.4737000  0.9082500  0.5388500    0.00000       Uiso       1.00
      H332          H  0.5296100  0.9271600  0.5290500    0.00000       Uiso       1.00
      H333          H  0.4923430  0.9183300  0.4829300    0.00000       Uiso       1.00
      H334          H  0.6361300  0.1163200  0.3161200    0.00000       Uiso       1.00
      H335          H  0.5808900  0.0947200  0.3239700    0.00000       Uiso       1.00
      H336          H  0.6284700  0.0611400  0.3379399    0.00000       Uiso       1.00
      H337          H  0.4282700  0.0726600  0.2651900    0.00000       Uiso       1.00
      H338          H  0.4005900  0.9429600  0.3204500    0.00000       Uiso       1.00
      H339          H  0.4808200  0.0865900  0.3250799    0.00000       Uiso       1.00
      H340          H  0.4520800  0.9574500  0.3803100    0.00000       Uiso       1.00
      C272          C  0.2274307  0.3337486  0.9302031    0.00000       Uiso       1.00
      C273          C  0.0534900  0.9832000  0.6442100    0.00000       Uiso       1.00
      C274          C  0.0930800  0.0081700  0.7105700    0.00000       Uiso       1.00
       B35          B  0.9969700  0.0326200  0.6033500    0.00000       Uiso       1.00
       O69          O  0.9897700  0.9974400  0.5702000    0.00000       Uiso       1.00
      C275          C  0.0676700  0.0476100  0.7093099    0.00000       Uiso       1.00
      C276          C  0.0303800  0.0235400  0.6421100    0.00000       Uiso       1.00
      C277          C  0.0373100  0.0555000  0.6751800    0.00000       Uiso       1.00
       O70          O  0.9754099  0.0764700  0.6008500    0.00000       Uiso       1.00
      C278          C  0.0054300  0.9302700  0.4821900    0.00000       Uiso       1.00
      C279          C  0.8850100  0.0955100  0.6618800    0.00000       Uiso       1.00
      H341          H  0.0263000  0.9082500  0.4611500    0.00000       Uiso       1.00
      H342          H  0.9703900  0.9271600  0.4709500    0.00000       Uiso       1.00
      H343          H  0.0076570  0.9183300  0.5170700    0.00000       Uiso       1.00
      H344          H  0.8638700  0.1163200  0.6838799    0.00000       Uiso       1.00
      H345          H  0.9191100  0.0947200  0.6760300    0.00000       Uiso       1.00
      H346          H  0.8715299  0.0611400  0.6620600    0.00000       Uiso       1.00
      H347          H  0.0717300  0.0726600  0.7348100    0.00000       Uiso       1.00
      H348          H  0.0994100  0.9429600  0.6795500    0.00000       Uiso       1.00
      H349          H  0.0191800  0.0865900  0.6749200    0.00000       Uiso       1.00
      H350          H  0.0479200  0.9574500  0.6196900    0.00000       Uiso       1.00
      C280          C  0.2725693  0.3337486  0.0697969    0.00000       Uiso       1.00
      C281          C  0.5534899  0.4832000  0.1442100    0.00000       Uiso       1.00
      C282          C  0.5930800  0.5081700  0.2105700    0.00000       Uiso       1.00
       B36          B  0.4969700  0.5326200  0.1033500    0.00000       Uiso       1.00
       O71          O  0.4897700  0.4974400  0.0702000    0.00000       Uiso       1.00
      C283          C  0.5676700  0.5476100  0.2093100    0.00000       Uiso       1.00
      C284          C  0.5303800  0.5235400  0.1421100    0.00000       Uiso       1.00
      C285          C  0.5373100  0.5555000  0.1751800    0.00000       Uiso       1.00
       O72          O  0.4754100  0.5764700  0.1008500    0.00000       Uiso       1.00
      C286          C  0.5054300  0.4302700  0.9821900    0.00000       Uiso       1.00
      C287          C  0.3850100  0.5955100  0.1618800    0.00000       Uiso       1.00
      H351          H  0.5263000  0.4082500  0.9611500    0.00000       Uiso       1.00
      H352          H  0.4703900  0.4271600  0.9709500    0.00000       Uiso       1.00
      H353          H  0.5076570  0.4183300  0.0170700    0.00000       Uiso       1.00
      H354          H  0.3638700  0.6163200  0.1838800    0.00000       Uiso       1.00
      H355          H  0.4191100  0.5947200  0.1760300    0.00000       Uiso       1.00
      H356          H  0.3715300  0.5611399  0.1620600    0.00000       Uiso       1.00
      H357          H  0.5717300  0.5726600  0.2348100    0.00000       Uiso       1.00
      H358          H  0.5994100  0.4429600  0.1795500    0.00000       Uiso       1.00
      H359          H  0.5191800  0.5865899  0.1749200    0.00000       Uiso       1.00
      H360          H  0.5479200  0.4574500  0.1196900    0.00000       Uiso       1.00
      C288          C  0.7725693  0.8337486  0.5697969    0.00000       Uiso       1.00
      C289          C  0.5534899  0.5168000  0.3557900    0.00000       Uiso       1.00
      C290          C  0.5930800  0.4918300  0.2894300    0.00000       Uiso       1.00
       B37          B  0.4969700  0.4673800  0.3966500    0.00000       Uiso       1.00
       O73          O  0.4897700  0.5025600  0.4297999    0.00000       Uiso       1.00
      C291          C  0.5676700  0.4523900  0.2906900    0.00000       Uiso       1.00
      C292          C  0.5303800  0.4764600  0.3578900    0.00000       Uiso       1.00
      C293          C  0.5373100  0.4445000  0.3248200    0.00000       Uiso       1.00
       O74          O  0.4754100  0.4235300  0.3991500    0.00000       Uiso       1.00
      C294          C  0.5054300  0.5697300  0.5178100    0.00000       Uiso       1.00
      C295          C  0.3850100  0.4044900  0.3381200    0.00000       Uiso       1.00
      H361          H  0.5263000  0.5917500  0.5388500    0.00000       Uiso       1.00
      H362          H  0.4703900  0.5728400  0.5290500    0.00000       Uiso       1.00
      H363          H  0.5076570  0.5816700  0.4829300    0.00000       Uiso       1.00
      H364          H  0.3638700  0.3836800  0.3161200    0.00000       Uiso       1.00
      H365          H  0.4191100  0.4052800  0.3239700    0.00000       Uiso       1.00
      H366          H  0.3715300  0.4388600  0.3379399    0.00000       Uiso       1.00
      H367          H  0.5717300  0.4273400  0.2651900    0.00000       Uiso       1.00
      H368          H  0.5994100  0.5570400  0.3204500    0.00000       Uiso       1.00
      H369          H  0.5191800  0.4134100  0.3250799    0.00000       Uiso       1.00
      H370          H  0.5479200  0.5425500  0.3803100    0.00000       Uiso       1.00
      C296          C  0.7725693  0.1662514  0.9302031    0.00000       Uiso       1.00
      C297          C  0.0534900  0.0168000  0.8557900    0.00000       Uiso       1.00
      C298          C  0.0930800  0.9918299  0.7894300    0.00000       Uiso       1.00
       B38          B  0.9969700  0.9673800  0.8966500    0.00000       Uiso       1.00
       O75          O  0.9897700  0.0025600  0.9298000    0.00000       Uiso       1.00
      C299          C  0.0676700  0.9523900  0.7906900    0.00000       Uiso       1.00
      C300          C  0.0303800  0.9764600  0.8578900    0.00000       Uiso       1.00
      C301          C  0.0373100  0.9445000  0.8248199    0.00000       Uiso       1.00
       O76          O  0.9754099  0.9235300  0.8991500    0.00000       Uiso       1.00
      C302          C  0.0054300  0.0697300  0.0178100    0.00000       Uiso       1.00
      C303          C  0.8850100  0.9044899  0.8381200    0.00000       Uiso       1.00
      H371          H  0.0263000  0.0917500  0.0388500    0.00000       Uiso       1.00
      H372          H  0.9703900  0.0728400  0.0290500    0.00000       Uiso       1.00
      H373          H  0.0076570  0.0816700  0.9829299    0.00000       Uiso       1.00
      H374          H  0.8638700  0.8836800  0.8161200    0.00000       Uiso       1.00
      H375          H  0.9191100  0.9052799  0.8239700    0.00000       Uiso       1.00
      H376          H  0.8715299  0.9388600  0.8379400    0.00000       Uiso       1.00
      H377          H  0.0717300  0.9273400  0.7651900    0.00000       Uiso       1.00
      H378          H  0.0994100  0.0570400  0.8204500    0.00000       Uiso       1.00
      H379          H  0.0191800  0.9134100  0.8250800    0.00000       Uiso       1.00
      H380          H  0.0479200  0.0425500  0.8803099    0.00000       Uiso       1.00
      C304          C  0.2725693  0.6662514  0.4302031    0.00000       Uiso       1.00
      C305          C  0.4465100  0.0168000  0.1442100    0.00000       Uiso       1.00
      C306          C  0.4069200  0.9918299  0.2105700    0.00000       Uiso       1.00
       B39          B  0.5030300  0.9673800  0.1033500    0.00000       Uiso       1.00
       O77          O  0.5102300  0.0025600  0.0702000    0.00000       Uiso       1.00
      C307          C  0.4323300  0.9523900  0.2093100    0.00000       Uiso       1.00
      C308          C  0.4696200  0.9764600  0.1421100    0.00000       Uiso       1.00
      C309          C  0.4626900  0.9445000  0.1751800    0.00000       Uiso       1.00
       O78          O  0.5245900  0.9235300  0.1008500    0.00000       Uiso       1.00
      C310          C  0.4945700  0.0697300  0.9821900    0.00000       Uiso       1.00
      C311          C  0.6149900  0.9044899  0.1618800    0.00000       Uiso       1.00
      H381          H  0.4737000  0.0917500  0.9611500    0.00000       Uiso       1.00
      H382          H  0.5296100  0.0728400  0.9709500    0.00000       Uiso       1.00
      H383          H  0.4923430  0.0816700  0.0170700    0.00000       Uiso       1.00
      H384          H  0.6361300  0.8836800  0.1838800    0.00000       Uiso       1.00
      H385          H  0.5808900  0.9052799  0.1760300    0.00000       Uiso       1.00
      H386          H  0.6284700  0.9388600  0.1620600    0.00000       Uiso       1.00
      H387          H  0.4282700  0.9273400  0.2348100    0.00000       Uiso       1.00
      H388          H  0.4005900  0.0570400  0.1795500    0.00000       Uiso       1.00
      H389          H  0.4808200  0.9134100  0.1749200    0.00000       Uiso       1.00
      H390          H  0.4520800  0.0425500  0.1196900    0.00000       Uiso       1.00
      C312          C  0.2274307  0.6662514  0.5697969    0.00000       Uiso       1.00
      C313          C  0.9465100  0.5168000  0.6442100    0.00000       Uiso       1.00
      C314          C  0.9069200  0.4918300  0.7105700    0.00000       Uiso       1.00
       B40          B  0.0030300  0.4673800  0.6033500    0.00000       Uiso       1.00
       O79          O  0.0102300  0.5025600  0.5702000    0.00000       Uiso       1.00
      C315          C  0.9323300  0.4523900  0.7093099    0.00000       Uiso       1.00
      C316          C  0.9696199  0.4764600  0.6421100    0.00000       Uiso       1.00
      C317          C  0.9626899  0.4445000  0.6751800    0.00000       Uiso       1.00
       O80          O  0.0245900  0.4235300  0.6008500    0.00000       Uiso       1.00
      C318          C  0.9945700  0.5697300  0.4821900    0.00000       Uiso       1.00
      C319          C  0.1149900  0.4044900  0.6618800    0.00000       Uiso       1.00
      H391          H  0.9737000  0.5917500  0.4611500    0.00000       Uiso       1.00
      H392          H  0.0296100  0.5728400  0.4709500    0.00000       Uiso       1.00
      H393          H  0.9923430  0.5816700  0.5170700    0.00000       Uiso       1.00
      H394          H  0.1361300  0.3836800  0.6838799    0.00000       Uiso       1.00
      H395          H  0.0808900  0.4052800  0.6760300    0.00000       Uiso       1.00
      H396          H  0.1284700  0.4388600  0.6620600    0.00000       Uiso       1.00
      H397          H  0.9282700  0.4273400  0.7348100    0.00000       Uiso       1.00
      H398          H  0.9005900  0.5570400  0.6795500    0.00000       Uiso       1.00
      H399          H  0.9808199  0.4134100  0.6749200    0.00000       Uiso       1.00
      H400          H  0.9520800  0.5425500  0.6196900    0.00000       Uiso       1.00
      C320          C  0.7274307  0.1662514  0.0697969    0.00000       Uiso       1.00
      C321          C  0.4832000  0.8557900  0.9465100    0.00000       Uiso       1.00
      C322          C  0.5081700  0.7894300  0.9069200    0.00000       Uiso       1.00
       B41          B  0.5326200  0.8966500  0.0030300    0.00000       Uiso       1.00
       O81          O  0.4974400  0.9298000  0.0102300    0.00000       Uiso       1.00
      C323          C  0.5476100  0.7906900  0.9323300    0.00000       Uiso       1.00
      C324          C  0.5235400  0.8578900  0.9696199    0.00000       Uiso       1.00
      C325          C  0.5555000  0.8248199  0.9626899    0.00000       Uiso       1.00
       O82          O  0.5764700  0.8991500  0.0245900    0.00000       Uiso       1.00
      C326          C  0.4302700  0.0178100  0.9945700    0.00000       Uiso       1.00
      C327          C  0.5955100  0.8381200  0.1149900    0.00000       Uiso       1.00
      H401          H  0.4082500  0.0388500  0.9737000    0.00000       Uiso       1.00
      H402          H  0.4271600  0.0290500  0.0296100    0.00000       Uiso       1.00
      H403          H  0.4183300  0.9829299  0.9923430    0.00000       Uiso       1.00
      H404          H  0.6163200  0.8161200  0.1361300    0.00000       Uiso       1.00
      H405          H  0.5947200  0.8239700  0.0808900    0.00000       Uiso       1.00
      H406          H  0.5611399  0.8379400  0.1284700    0.00000       Uiso       1.00
      H407          H  0.5726600  0.7651900  0.9282700    0.00000       Uiso       1.00
      H408          H  0.4429600  0.8204500  0.9005900    0.00000       Uiso       1.00
      H409          H  0.5865899  0.8250800  0.9808199    0.00000       Uiso       1.00
      H410          H  0.4574500  0.8803099  0.9520800    0.00000       Uiso       1.00
      C328          C  0.8337486  0.4302031  0.7274307    0.00000       Uiso       1.00
      C329          C  0.9832000  0.3557900  0.4465100    0.00000       Uiso       1.00
      C330          C  0.0081700  0.2894300  0.4069200    0.00000       Uiso       1.00
       B42          B  0.0326200  0.3966500  0.5030300    0.00000       Uiso       1.00
       O83          O  0.9974400  0.4297999  0.5102300    0.00000       Uiso       1.00
      C331          C  0.0476100  0.2906900  0.4323300    0.00000       Uiso       1.00
      C332          C  0.0235400  0.3578900  0.4696200    0.00000       Uiso       1.00
      C333          C  0.0555000  0.3248200  0.4626900    0.00000       Uiso       1.00
       O84          O  0.0764700  0.3991500  0.5245900    0.00000       Uiso       1.00
      C334          C  0.9302700  0.5178100  0.4945700    0.00000       Uiso       1.00
      C335          C  0.0955100  0.3381200  0.6149900    0.00000       Uiso       1.00
      H411          H  0.9082500  0.5388500  0.4737000    0.00000       Uiso       1.00
      H412          H  0.9271600  0.5290500  0.5296100    0.00000       Uiso       1.00
      H413          H  0.9183300  0.4829300  0.4923430    0.00000       Uiso       1.00
      H414          H  0.1163200  0.3161200  0.6361300    0.00000       Uiso       1.00
      H415          H  0.0947200  0.3239700  0.5808900    0.00000       Uiso       1.00
      H416          H  0.0611400  0.3379399  0.6284700    0.00000       Uiso       1.00
      H417          H  0.0726600  0.2651900  0.4282700    0.00000       Uiso       1.00
      H418          H  0.9429600  0.3204500  0.4005900    0.00000       Uiso       1.00
      H419          H  0.0865900  0.3250799  0.4808200    0.00000       Uiso       1.00
      H420          H  0.9574500  0.3803100  0.4520800    0.00000       Uiso       1.00
      C336          C  0.3337486  0.9302031  0.2274307    0.00000       Uiso       1.00
      C337          C  0.9832000  0.6442100  0.0534900    0.00000       Uiso       1.00
      C338          C  0.0081700  0.7105700  0.0930800    0.00000       Uiso       1.00
       B43          B  0.0326200  0.6033500  0.9969700    0.00000       Uiso       1.00
       O85          O  0.9974400  0.5702000  0.9897700    0.00000       Uiso       1.00
      C339          C  0.0476100  0.7093099  0.0676700    0.00000       Uiso       1.00
      C340          C  0.0235400  0.6421100  0.0303800    0.00000       Uiso       1.00
      C341          C  0.0555000  0.6751800  0.0373100    0.00000       Uiso       1.00
       O86          O  0.0764700  0.6008500  0.9754099    0.00000       Uiso       1.00
      C342          C  0.9302700  0.4821900  0.0054300    0.00000       Uiso       1.00
      C343          C  0.0955100  0.6618800  0.8850100    0.00000       Uiso       1.00
      H421          H  0.9082500  0.4611500  0.0263000    0.00000       Uiso       1.00
      H422          H  0.9271600  0.4709500  0.9703900    0.00000       Uiso       1.00
      H423          H  0.9183300  0.5170700  0.0076570    0.00000       Uiso       1.00
      H424          H  0.1163200  0.6838799  0.8638700    0.00000       Uiso       1.00
      H425          H  0.0947200  0.6760300  0.9191100    0.00000       Uiso       1.00
      H426          H  0.0611400  0.6620600  0.8715299    0.00000       Uiso       1.00
      H427          H  0.0726600  0.7348100  0.0717300    0.00000       Uiso       1.00
      H428          H  0.9429600  0.6795500  0.0994100    0.00000       Uiso       1.00
      H429          H  0.0865900  0.6749200  0.0191800    0.00000       Uiso       1.00
      H430          H  0.9574500  0.6196900  0.0479200    0.00000       Uiso       1.00
      C344          C  0.3337486  0.0697969  0.2725693    0.00000       Uiso       1.00
      C345          C  0.4832000  0.1442100  0.5534899    0.00000       Uiso       1.00
      C346          C  0.5081700  0.2105700  0.5930800    0.00000       Uiso       1.00
       B44          B  0.5326200  0.1033500  0.4969700    0.00000       Uiso       1.00
       O87          O  0.4974400  0.0702000  0.4897700    0.00000       Uiso       1.00
      C347          C  0.5476100  0.2093100  0.5676700    0.00000       Uiso       1.00
      C348          C  0.5235400  0.1421100  0.5303800    0.00000       Uiso       1.00
      C349          C  0.5555000  0.1751800  0.5373100    0.00000       Uiso       1.00
       O88          O  0.5764700  0.1008500  0.4754100    0.00000       Uiso       1.00
      C350          C  0.4302700  0.9821900  0.5054300    0.00000       Uiso       1.00
      C351          C  0.5955100  0.1618800  0.3850100    0.00000       Uiso       1.00
      H431          H  0.4082500  0.9611500  0.5263000    0.00000       Uiso       1.00
      H432          H  0.4271600  0.9709500  0.4703900    0.00000       Uiso       1.00
      H433          H  0.4183300  0.0170700  0.5076570    0.00000       Uiso       1.00
      H434          H  0.6163200  0.1838800  0.3638700    0.00000       Uiso       1.00
      H435          H  0.5947200  0.1760300  0.4191100    0.00000       Uiso       1.00
      H436          H  0.5611399  0.1620600  0.3715300    0.00000       Uiso       1.00
      H437          H  0.5726600  0.2348100  0.5717300    0.00000       Uiso       1.00
      H438          H  0.4429600  0.1795500  0.5994100    0.00000       Uiso       1.00
      H439          H  0.5865899  0.1749200  0.5191800    0.00000       Uiso       1.00
      H440          H  0.4574500  0.1196900  0.5479200    0.00000       Uiso       1.00
      C352          C  0.8337486  0.5697969  0.7725693    0.00000       Uiso       1.00
      C353          C  0.5168000  0.3557900  0.5534899    0.00000       Uiso       1.00
      C354          C  0.4918300  0.2894300  0.5930800    0.00000       Uiso       1.00
       B45          B  0.4673800  0.3966500  0.4969700    0.00000       Uiso       1.00
       O89          O  0.5025600  0.4297999  0.4897700    0.00000       Uiso       1.00
      C355          C  0.4523900  0.2906900  0.5676700    0.00000       Uiso       1.00
      C356          C  0.4764600  0.3578900  0.5303800    0.00000       Uiso       1.00
      C357          C  0.4445000  0.3248200  0.5373100    0.00000       Uiso       1.00
       O90          O  0.4235300  0.3991500  0.4754100    0.00000       Uiso       1.00
      C358          C  0.5697300  0.5178100  0.5054300    0.00000       Uiso       1.00
      C359          C  0.4044900  0.3381200  0.3850100    0.00000       Uiso       1.00
      H441          H  0.5917500  0.5388500  0.5263000    0.00000       Uiso       1.00
      H442          H  0.5728400  0.5290500  0.4703900    0.00000       Uiso       1.00
      H443          H  0.5816700  0.4829300  0.5076570    0.00000       Uiso       1.00
      H444          H  0.3836800  0.3161200  0.3638700    0.00000       Uiso       1.00
      H445          H  0.4052800  0.3239700  0.4191100    0.00000       Uiso       1.00
      H446          H  0.4388600  0.3379399  0.3715300    0.00000       Uiso       1.00
      H447          H  0.4273400  0.2651900  0.5717300    0.00000       Uiso       1.00
      H448          H  0.5570400  0.3204500  0.5994100    0.00000       Uiso       1.00
      H449          H  0.4134100  0.3250799  0.5191800    0.00000       Uiso       1.00
      H450          H  0.5425500  0.3803100  0.5479200    0.00000       Uiso       1.00
      C360          C  0.1662514  0.9302031  0.7725693    0.00000       Uiso       1.00
      C361          C  0.0168000  0.8557900  0.0534900    0.00000       Uiso       1.00
      C362          C  0.9918299  0.7894300  0.0930800    0.00000       Uiso       1.00
       B46          B  0.9673800  0.8966500  0.9969700    0.00000       Uiso       1.00
       O91          O  0.0025600  0.9298000  0.9897700    0.00000       Uiso       1.00
      C363          C  0.9523900  0.7906900  0.0676700    0.00000       Uiso       1.00
      C364          C  0.9764600  0.8578900  0.0303800    0.00000       Uiso       1.00
      C365          C  0.9445000  0.8248199  0.0373100    0.00000       Uiso       1.00
       O92          O  0.9235300  0.8991500  0.9754099    0.00000       Uiso       1.00
      C366          C  0.0697300  0.0178100  0.0054300    0.00000       Uiso       1.00
      C367          C  0.9044899  0.8381200  0.8850100    0.00000       Uiso       1.00
      H451          H  0.0917500  0.0388500  0.0263000    0.00000       Uiso       1.00
      H452          H  0.0728400  0.0290500  0.9703900    0.00000       Uiso       1.00
      H453          H  0.0816700  0.9829299  0.0076570    0.00000       Uiso       1.00
      H454          H  0.8836800  0.8161200  0.8638700    0.00000       Uiso       1.00
      H455          H  0.9052799  0.8239700  0.9191100    0.00000       Uiso       1.00
      H456          H  0.9388600  0.8379400  0.8715299    0.00000       Uiso       1.00
      H457          H  0.9273400  0.7651900  0.0717300    0.00000       Uiso       1.00
      H458          H  0.0570400  0.8204500  0.0994100    0.00000       Uiso       1.00
      H459          H  0.9134100  0.8250800  0.0191800    0.00000       Uiso       1.00
      H460          H  0.0425500  0.8803099  0.0479200    0.00000       Uiso       1.00
      C368          C  0.6662514  0.4302031  0.2725693    0.00000       Uiso       1.00
      C369          C  0.0168000  0.1442100  0.4465100    0.00000       Uiso       1.00
      C370          C  0.9918299  0.2105700  0.4069200    0.00000       Uiso       1.00
       B47          B  0.9673800  0.1033500  0.5030300    0.00000       Uiso       1.00
       O93          O  0.0025600  0.0702000  0.5102300    0.00000       Uiso       1.00
      C371          C  0.9523900  0.2093100  0.4323300    0.00000       Uiso       1.00
      C372          C  0.9764600  0.1421100  0.4696200    0.00000       Uiso       1.00
      C373          C  0.9445000  0.1751800  0.4626900    0.00000       Uiso       1.00
       O94          O  0.9235300  0.1008500  0.5245900    0.00000       Uiso       1.00
      C374          C  0.0697300  0.9821900  0.4945700    0.00000       Uiso       1.00
      C375          C  0.9044899  0.1618800  0.6149900    0.00000       Uiso       1.00
      H461          H  0.0917500  0.9611500  0.4737000    0.00000       Uiso       1.00
      H462          H  0.0728400  0.9709500  0.5296100    0.00000       Uiso       1.00
      H463          H  0.0816700  0.0170700  0.4923430    0.00000       Uiso       1.00
      H464          H  0.8836800  0.1838800  0.6361300    0.00000       Uiso       1.00
      H465          H  0.9052799  0.1760300  0.5808900    0.00000       Uiso       1.00
      H466          H  0.9388600  0.1620600  0.6284700    0.00000       Uiso       1.00
      H467          H  0.9273400  0.2348100  0.4282700    0.00000       Uiso       1.00
      H468          H  0.0570400  0.1795500  0.4005900    0.00000       Uiso       1.00
      H469          H  0.9134100  0.1749200  0.4808200    0.00000       Uiso       1.00
      H470          H  0.0425500  0.1196900  0.4520800    0.00000       Uiso       1.00
      C376          C  0.6662514  0.5697969  0.2274307    0.00000       Uiso       1.00
      C377          C  0.5168000  0.6442100  0.9465100    0.00000       Uiso       1.00
      C378          C  0.4918300  0.7105700  0.9069200    0.00000       Uiso       1.00
       B48          B  0.4673800  0.6033500  0.0030300    0.00000       Uiso       1.00
       O95          O  0.5025600  0.5702000  0.0102300    0.00000       Uiso       1.00
      C379          C  0.4523900  0.7093099  0.9323300    0.00000       Uiso       1.00
      C380          C  0.4764600  0.6421100  0.9696199    0.00000       Uiso       1.00
      C381          C  0.4445000  0.6751800  0.9626899    0.00000       Uiso       1.00
       O96          O  0.4235300  0.6008500  0.0245900    0.00000       Uiso       1.00
      C382          C  0.5697300  0.4821900  0.9945700    0.00000       Uiso       1.00
      C383          C  0.4044900  0.6618800  0.1149900    0.00000       Uiso       1.00
      H471          H  0.5917500  0.4611500  0.9737000    0.00000       Uiso       1.00
      H472          H  0.5728400  0.4709500  0.0296100    0.00000       Uiso       1.00
      H473          H  0.5816700  0.5170700  0.9923430    0.00000       Uiso       1.00
      H474          H  0.3836800  0.6838799  0.1361300    0.00000       Uiso       1.00
      H475          H  0.4052800  0.6760300  0.0808900    0.00000       Uiso       1.00
      H476          H  0.4388600  0.6620600  0.1284700    0.00000       Uiso       1.00
      H477          H  0.4273400  0.7348100  0.9282700    0.00000       Uiso       1.00
      H478          H  0.5570400  0.6795500  0.9005900    0.00000       Uiso       1.00
      H479          H  0.4134100  0.6749200  0.9808199    0.00000       Uiso       1.00
      H480          H  0.5425500  0.6196900  0.9520800    0.00000       Uiso       1.00
      C384          C  0.1662514  0.0697969  0.7274307    0.00000       Uiso       1.00
       Si1         Si  0.7649199  0.7350800  0.2649200    0.00000       Uiso       1.00
      C385          C  0.7286800  0.7713200  0.2286800    0.00000       Uiso       1.00
      C386          C  0.8644600  0.6355400  0.3644600    0.00000       Uiso       1.00
       Si2         Si  0.8282099  0.6717900  0.3282100    0.00000       Uiso       1.00
       Si3         Si  0.2649200  0.2350800  0.7649199    0.00000       Uiso       1.00
      C387          C  0.2286800  0.2713200  0.7286800    0.00000       Uiso       1.00
      C388          C  0.3644600  0.1355400  0.8644600    0.00000       Uiso       1.00
       Si4         Si  0.3282100  0.1717900  0.8282099    0.00000       Uiso       1.00
       Si5         Si  0.7350800  0.2649200  0.7649199    0.00000       Uiso       1.00
      C389          C  0.7713200  0.2286800  0.7286800    0.00000       Uiso       1.00
      C390          C  0.6355400  0.3644600  0.8644600    0.00000       Uiso       1.00
       Si6         Si  0.6717900  0.3282100  0.8282099    0.00000       Uiso       1.00
       Si7         Si  0.2350800  0.7649199  0.2649200    0.00000       Uiso       1.00
      C391          C  0.2713200  0.7286800  0.2286800    0.00000       Uiso       1.00
      C392          C  0.1355400  0.8644600  0.3644600    0.00000       Uiso       1.00
       Si8         Si  0.1717900  0.8282099  0.3282100    0.00000       Uiso       1.00
       Si9         Si  0.2350800  0.2350800  0.2350800    0.00000       Uiso       1.00
      C393          C  0.2713200  0.2713200  0.2713200    0.00000       Uiso       1.00
      C394          C  0.1355400  0.1355400  0.1355400    0.00000       Uiso       1.00
      Si10         Si  0.1717900  0.1717900  0.1717900    0.00000       Uiso       1.00
      Si11         Si  0.7350800  0.7350800  0.7350800    0.00000       Uiso       1.00
      C395          C  0.7713200  0.7713200  0.7713200    0.00000       Uiso       1.00
      C396          C  0.6355400  0.6355400  0.6355400    0.00000       Uiso       1.00
      Si12         Si  0.6717900  0.6717900  0.6717900    0.00000       Uiso       1.00
      Si13         Si  0.2649200  0.7649199  0.7350800    0.00000       Uiso       1.00
      C397          C  0.2286800  0.7286800  0.7713200    0.00000       Uiso       1.00
      C398          C  0.3644600  0.8644600  0.6355400    0.00000       Uiso       1.00
      Si14         Si  0.3282100  0.8282099  0.6717900    0.00000       Uiso       1.00
      Si15         Si  0.7649199  0.2649200  0.2350800    0.00000       Uiso       1.00
      C399          C  0.7286800  0.2286800  0.2713200    0.00000       Uiso       1.00
      C400          C  0.8644600  0.3644600  0.1355400    0.00000       Uiso       1.00
      Si16         Si  0.8282099  0.3282100  0.1717900    0.00000       Uiso       1.00
      Si17         Si  0.9850799  0.0149200  0.5149200    0.00000       Uiso       1.00
      C401          C  0.0213200  0.9786800  0.4786800    0.00000       Uiso       1.00
      C402          C  0.8855400  0.1144600  0.6144599    0.00000       Uiso       1.00
      Si18         Si  0.9217899  0.0782100  0.5782100    0.00000       Uiso       1.00
      Si19         Si  0.4850800  0.5149200  0.0149200    0.00000       Uiso       1.00
      C403          C  0.5213200  0.4786800  0.9786800    0.00000       Uiso       1.00
      C404          C  0.3855400  0.6144599  0.1144600    0.00000       Uiso       1.00
      Si20         Si  0.4217900  0.5782100  0.0782100    0.00000       Uiso       1.00
      Si21         Si  0.5149200  0.9850799  0.0149200    0.00000       Uiso       1.00
      C405          C  0.4786800  0.0213200  0.9786800    0.00000       Uiso       1.00
      C406          C  0.6144599  0.8855400  0.1144600    0.00000       Uiso       1.00
      Si22         Si  0.5782100  0.9217899  0.0782100    0.00000       Uiso       1.00
      Si23         Si  0.0149200  0.4850800  0.5149200    0.00000       Uiso       1.00
      C407          C  0.9786800  0.5213200  0.4786800    0.00000       Uiso       1.00
      C408          C  0.1144600  0.3855400  0.6144599    0.00000       Uiso       1.00
      Si24         Si  0.0782100  0.4217900  0.5782100    0.00000       Uiso       1.00
      Si25         Si  0.4850800  0.4850800  0.4850800    0.00000       Uiso       1.00
      C409          C  0.5213200  0.5213200  0.5213200    0.00000       Uiso       1.00
      C410          C  0.3855400  0.3855400  0.3855400    0.00000       Uiso       1.00
      Si26         Si  0.4217900  0.4217900  0.4217900    0.00000       Uiso       1.00
      Si27         Si  0.9850799  0.9850799  0.9850799    0.00000       Uiso       1.00
      C411          C  0.0213200  0.0213200  0.0213200    0.00000       Uiso       1.00
      C412          C  0.8855400  0.8855400  0.8855400    0.00000       Uiso       1.00
      Si28         Si  0.9217899  0.9217899  0.9217899    0.00000       Uiso       1.00
      Si29         Si  0.0149200  0.5149200  0.9850799    0.00000       Uiso       1.00
      C413          C  0.9786800  0.4786800  0.0213200    0.00000       Uiso       1.00
      C414          C  0.1144600  0.6144599  0.8855400    0.00000       Uiso       1.00
      Si30         Si  0.0782100  0.5782100  0.9217899    0.00000       Uiso       1.00
      Si31         Si  0.5149200  0.0149200  0.4850800    0.00000       Uiso       1.00
      C415          C  0.4786800  0.9786800  0.5213200    0.00000       Uiso       1.00
      C416          C  0.6144599  0.1144600  0.3855400    0.00000       Uiso       1.00
      Si32         Si  0.5782100  0.0782100  0.4217900    0.00000       Uiso       1.00
      C417          C  0.3750000  0.0000000  0.2500000    0.00000       Uiso       1.00
      C418          C  0.1250000  0.0000000  0.7500000    0.00000       Uiso       1.00
      C419          C  0.6250000  0.5000000  0.2500000    0.00000       Uiso       1.00
      C420          C  0.8750000  0.5000000  0.7500000    0.00000       Uiso       1.00
      C421          C  0.2500000  0.3750000  0.0000000    0.00000       Uiso       1.00
      C422          C  0.7500000  0.1250000  0.0000000    0.00000       Uiso       1.00
      C423          C  0.2500000  0.6250000  0.5000000    0.00000       Uiso       1.00
      C424          C  0.7500000  0.8750000  0.5000000    0.00000       Uiso       1.00
      C425          C  0.0000000  0.2500000  0.3750000    0.00000       Uiso       1.00
      C426          C  0.0000000  0.7500000  0.1250000    0.00000       Uiso       1.00
      C427          C  0.5000000  0.2500000  0.6250000    0.00000       Uiso       1.00
      C428          C  0.5000000  0.7500000  0.8750000    0.00000       Uiso       1.00
