data_COF-320-298K
_audit_creation_date              0000-00-00
_audit_creation_method            'LanYouShi'
_symmetry_space_group_name_H-M    'P1'
_cell_length_a                    27.9300003
_cell_length_b                    31.3099995
_cell_length_c                    7.8899999
_cell_angle_alpha                 90.0000000
_cell_angle_beta                  90.0000000
_cell_angle_gamma                 90.0000000
loop_
_atom_site_label
_atom_site_type_symbol
_atom_site_fract_x
_atom_site_fract_y
_atom_site_fract_z
_atom_site_U_iso_or_equiv
_atom_site_adp_type
_atom_site_occupancy
        C1          C  0.0432500  0.3057900  0.8959500    0.00000       Uiso       1.00
        C2          C  0.0432500  0.3408800  0.7866600    0.00000       Uiso       1.00
        C3          C  0.9375100  0.2114200  0.2688900    0.00000       Uiso       1.00
        C4          C  0.9000000  0.2114400  0.3861400    0.00000       Uiso       1.00
        H1          H  0.0772900  0.2922500  0.9322100    0.00000       Uiso       1.00
        H2          H  0.0769200  0.3536500  0.7411900    0.00000       Uiso       1.00
        H3          H  0.9516200  0.1809900  0.2285000    0.00000       Uiso       1.00
        H4          H  0.8862700  0.1814000  0.4337500    0.00000       Uiso       1.00
        C5          C  0.0431300  0.4361000  0.2662500    0.00000       Uiso       1.00
        C6          C  0.0432800  0.4670500  0.1385300    0.00000       Uiso       1.00
        C7          C  0.8093600  0.2115400  0.9481900    0.00000       Uiso       1.00
        C8          C  0.7803900  0.2114000  0.0927500    0.00000       Uiso       1.00
        H5          H  0.0768500  0.4237900  0.3135000    0.00000       Uiso       1.00
        H6          H  0.0780000  0.4772000  0.0953600    0.00000       Uiso       1.00
        H7          H  0.8212200  0.1814600  0.8947601    0.00000       Uiso       1.00
        H8          H  0.7709900  0.1804400  0.1415200    0.00000       Uiso       1.00
        C9          C  0.5432500  0.8057900  0.3959500    0.00000       Uiso       1.00
       C10          C  0.5432500  0.8408800  0.2866600    0.00000       Uiso       1.00
       C11          C  0.4375100  0.7114201  0.7688900    0.00000       Uiso       1.00
       C12          C  0.4000000  0.7114400  0.8861400    0.00000       Uiso       1.00
        H9          H  0.5772900  0.7922500  0.4322100    0.00000       Uiso       1.00
       H10          H  0.5769200  0.8536500  0.2411900    0.00000       Uiso       1.00
       H11          H  0.4516200  0.6809900  0.7285000    0.00000       Uiso       1.00
       H12          H  0.3862700  0.6814001  0.9337500    0.00000       Uiso       1.00
       C13          C  0.5431300  0.9361001  0.7662500    0.00000       Uiso       1.00
       C14          C  0.5432800  0.9670500  0.6385300    0.00000       Uiso       1.00
       C15          C  0.3093600  0.7115400  0.4481900    0.00000       Uiso       1.00
       C16          C  0.2803900  0.7114000  0.5927500    0.00000       Uiso       1.00
       H13          H  0.5768499  0.9237900  0.8135000    0.00000       Uiso       1.00
       H14          H  0.5779999  0.9772000  0.5953600    0.00000       Uiso       1.00
       H15          H  0.3212200  0.6814600  0.3947600    0.00000       Uiso       1.00
       H16          H  0.2709900  0.6804400  0.6415200    0.00000       Uiso       1.00
       C17          C  0.9567500  0.1942100  0.8959500    0.00000       Uiso       1.00
       C18          C  0.9567500  0.1591200  0.7866600    0.00000       Uiso       1.00
       C19          C  0.0624900  0.2885800  0.2688900    0.00000       Uiso       1.00
       C20          C  0.1000000  0.2885600  0.3861400    0.00000       Uiso       1.00
       H17          H  0.9227100  0.2077500  0.9322100    0.00000       Uiso       1.00
       H18          H  0.9230800  0.1463500  0.7411900    0.00000       Uiso       1.00
       H19          H  0.0483800  0.3190100  0.2285000    0.00000       Uiso       1.00
       H20          H  0.1137300  0.3186000  0.4337500    0.00000       Uiso       1.00
       C21          C  0.9568700  0.0639000  0.2662500    0.00000       Uiso       1.00
       C22          C  0.9567200  0.0329500  0.1385300    0.00000       Uiso       1.00
       C23          C  0.1906400  0.2884600  0.9481900    0.00000       Uiso       1.00
       C24          C  0.2196100  0.2886000  0.0927500    0.00000       Uiso       1.00
       H21          H  0.9231499  0.0762100  0.3135000    0.00000       Uiso       1.00
       H22          H  0.9219999  0.0228000  0.0953600    0.00000       Uiso       1.00
       H23          H  0.1787800  0.3185400  0.8947601    0.00000       Uiso       1.00
       H24          H  0.2290100  0.3195600  0.1415200    0.00000       Uiso       1.00
       C25          C  0.4567500  0.6942101  0.3959500    0.00000       Uiso       1.00
       C26          C  0.4567500  0.6591200  0.2866600    0.00000       Uiso       1.00
       C27          C  0.5624900  0.7885800  0.7688900    0.00000       Uiso       1.00
       C28          C  0.6000000  0.7885600  0.8861400    0.00000       Uiso       1.00
       H25          H  0.4227100  0.7077500  0.4322100    0.00000       Uiso       1.00
       H26          H  0.4230800  0.6463500  0.2411900    0.00000       Uiso       1.00
       H27          H  0.5483800  0.8190100  0.7285000    0.00000       Uiso       1.00
       H28          H  0.6137300  0.8186000  0.9337500    0.00000       Uiso       1.00
       C29          C  0.4568700  0.5639000  0.7662500    0.00000       Uiso       1.00
       C30          C  0.4567200  0.5329500  0.6385300    0.00000       Uiso       1.00
       C31          C  0.6906400  0.7884600  0.4481900    0.00000       Uiso       1.00
       C32          C  0.7196100  0.7886000  0.5927500    0.00000       Uiso       1.00
       H29          H  0.4231500  0.5762100  0.8135000    0.00000       Uiso       1.00
       H30          H  0.4220000  0.5228000  0.5953600    0.00000       Uiso       1.00
       H31          H  0.6787800  0.8185400  0.3947600    0.00000       Uiso       1.00
       H32          H  0.7290100  0.8195600  0.6415200    0.00000       Uiso       1.00
       C33          C  0.9567500  0.8057900  0.1040500    0.00000       Uiso       1.00
       C34          C  0.9567500  0.8408800  0.2133400    0.00000       Uiso       1.00
       C35          C  0.0624900  0.7114201  0.7311100    0.00000       Uiso       1.00
       C36          C  0.1000000  0.7114400  0.6138600    0.00000       Uiso       1.00
       H33          H  0.9227100  0.7922500  0.0677900    0.00000       Uiso       1.00
       H34          H  0.9230800  0.8536500  0.2588100    0.00000       Uiso       1.00
       H35          H  0.0483800  0.6809900  0.7715000    0.00000       Uiso       1.00
       H36          H  0.1137300  0.6814001  0.5662500    0.00000       Uiso       1.00
       C37          C  0.9568700  0.9361001  0.7337500    0.00000       Uiso       1.00
       C38          C  0.9567200  0.9670500  0.8614700    0.00000       Uiso       1.00
       C39          C  0.1906400  0.7115400  0.0518100    0.00000       Uiso       1.00
       C40          C  0.2196100  0.7114000  0.9072500    0.00000       Uiso       1.00
       H37          H  0.9231499  0.9237900  0.6865000    0.00000       Uiso       1.00
       H38          H  0.9219999  0.9772000  0.9046400    0.00000       Uiso       1.00
       H39          H  0.1787800  0.6814600  0.1052400    0.00000       Uiso       1.00
       H40          H  0.2290100  0.6804400  0.8584800    0.00000       Uiso       1.00
       C41          C  0.4567500  0.3057900  0.6040500    0.00000       Uiso       1.00
       C42          C  0.4567500  0.3408800  0.7133400    0.00000       Uiso       1.00
       C43          C  0.5624900  0.2114200  0.2311100    0.00000       Uiso       1.00
       C44          C  0.6000000  0.2114400  0.1138600    0.00000       Uiso       1.00
       H41          H  0.4227100  0.2922500  0.5677900    0.00000       Uiso       1.00
       H42          H  0.4230800  0.3536500  0.7588100    0.00000       Uiso       1.00
       H43          H  0.5483800  0.1809900  0.2715000    0.00000       Uiso       1.00
       H44          H  0.6137300  0.1814000  0.0662500    0.00000       Uiso       1.00
       C45          C  0.4568700  0.4361000  0.2337500    0.00000       Uiso       1.00
       C46          C  0.4567200  0.4670500  0.3614700    0.00000       Uiso       1.00
       C47          C  0.6906400  0.2115400  0.5518100    0.00000       Uiso       1.00
       C48          C  0.7196100  0.2114000  0.4072500    0.00000       Uiso       1.00
       H45          H  0.4231500  0.4237900  0.1865000    0.00000       Uiso       1.00
       H46          H  0.4220000  0.4772000  0.4046400    0.00000       Uiso       1.00
       H47          H  0.6787800  0.1814600  0.6052400    0.00000       Uiso       1.00
       H48          H  0.7290100  0.1804400  0.3584800    0.00000       Uiso       1.00
       C49          C  0.0432500  0.6942101  0.1040500    0.00000       Uiso       1.00
       C50          C  0.0432500  0.6591200  0.2133400    0.00000       Uiso       1.00
       C51          C  0.9375100  0.7885800  0.7311100    0.00000       Uiso       1.00
       C52          C  0.9000000  0.7885600  0.6138600    0.00000       Uiso       1.00
       H49          H  0.0772900  0.7077500  0.0677900    0.00000       Uiso       1.00
       H50          H  0.0769200  0.6463500  0.2588100    0.00000       Uiso       1.00
       H51          H  0.9516200  0.8190100  0.7715000    0.00000       Uiso       1.00
       H52          H  0.8862700  0.8186000  0.5662500    0.00000       Uiso       1.00
       C53          C  0.0431300  0.5639000  0.7337500    0.00000       Uiso       1.00
       C54          C  0.0432800  0.5329500  0.8614700    0.00000       Uiso       1.00
       C55          C  0.8093600  0.7884600  0.0518100    0.00000       Uiso       1.00
       C56          C  0.7803900  0.7886000  0.9072500    0.00000       Uiso       1.00
       H53          H  0.0768500  0.5762100  0.6865000    0.00000       Uiso       1.00
       H54          H  0.0780000  0.5228000  0.9046400    0.00000       Uiso       1.00
       H55          H  0.8212200  0.8185400  0.1052400    0.00000       Uiso       1.00
       H56          H  0.7709900  0.8195600  0.8584800    0.00000       Uiso       1.00
       C57          C  0.5432500  0.1942100  0.6040500    0.00000       Uiso       1.00
       C58          C  0.5432500  0.1591200  0.7133400    0.00000       Uiso       1.00
       C59          C  0.4375100  0.2885800  0.2311100    0.00000       Uiso       1.00
       C60          C  0.4000000  0.2885600  0.1138600    0.00000       Uiso       1.00
       H57          H  0.5772900  0.2077500  0.5677900    0.00000       Uiso       1.00
       H58          H  0.5769200  0.1463500  0.7588100    0.00000       Uiso       1.00
       H59          H  0.4516200  0.3190100  0.2715000    0.00000       Uiso       1.00
       H60          H  0.3862700  0.3186000  0.0662500    0.00000       Uiso       1.00
       C61          C  0.5431300  0.0639000  0.2337500    0.00000       Uiso       1.00
       C62          C  0.5432800  0.0329500  0.3614700    0.00000       Uiso       1.00
       C63          C  0.3093600  0.2884600  0.5518100    0.00000       Uiso       1.00
       C64          C  0.2803900  0.2886000  0.4072500    0.00000       Uiso       1.00
       H61          H  0.5768499  0.0762100  0.1865000    0.00000       Uiso       1.00
       H62          H  0.5779999  0.0228000  0.4046400    0.00000       Uiso       1.00
       H63          H  0.3212200  0.3185400  0.6052400    0.00000       Uiso       1.00
       H64          H  0.2709900  0.3195600  0.3584800    0.00000       Uiso       1.00
       C65          C  0.9567500  0.6942101  0.1040500    0.00000       Uiso       1.00
       C66          C  0.9567500  0.6591200  0.2133400    0.00000       Uiso       1.00
       C67          C  0.0624900  0.7885800  0.7311100    0.00000       Uiso       1.00
       C68          C  0.1000000  0.7885600  0.6138600    0.00000       Uiso       1.00
       H65          H  0.9227100  0.7077500  0.0677900    0.00000       Uiso       1.00
       H66          H  0.9230800  0.6463500  0.2588100    0.00000       Uiso       1.00
       H67          H  0.0483800  0.8190100  0.7715000    0.00000       Uiso       1.00
       H68          H  0.1137300  0.8186000  0.5662500    0.00000       Uiso       1.00
       C69          C  0.9568700  0.5639000  0.7337500    0.00000       Uiso       1.00
       C70          C  0.9567200  0.5329500  0.8614700    0.00000       Uiso       1.00
       C71          C  0.1906400  0.7884600  0.0518100    0.00000       Uiso       1.00
       C72          C  0.2196100  0.7886000  0.9072500    0.00000       Uiso       1.00
       H69          H  0.9231499  0.5762100  0.6865000    0.00000       Uiso       1.00
       H70          H  0.9219999  0.5228000  0.9046400    0.00000       Uiso       1.00
       H71          H  0.1787800  0.8185400  0.1052400    0.00000       Uiso       1.00
       H72          H  0.2290100  0.8195600  0.8584800    0.00000       Uiso       1.00
       C73          C  0.4567500  0.1942100  0.6040500    0.00000       Uiso       1.00
       C74          C  0.4567500  0.1591200  0.7133400    0.00000       Uiso       1.00
       C75          C  0.5624900  0.2885800  0.2311100    0.00000       Uiso       1.00
       C76          C  0.6000000  0.2885600  0.1138600    0.00000       Uiso       1.00
       H73          H  0.4227100  0.2077500  0.5677900    0.00000       Uiso       1.00
       H74          H  0.4230800  0.1463500  0.7588100    0.00000       Uiso       1.00
       H75          H  0.5483800  0.3190100  0.2715000    0.00000       Uiso       1.00
       H76          H  0.6137300  0.3186000  0.0662500    0.00000       Uiso       1.00
       C77          C  0.4568700  0.0639000  0.2337500    0.00000       Uiso       1.00
       C78          C  0.4567200  0.0329500  0.3614700    0.00000       Uiso       1.00
       C79          C  0.6906400  0.2884600  0.5518100    0.00000       Uiso       1.00
       C80          C  0.7196100  0.2886000  0.4072500    0.00000       Uiso       1.00
       H77          H  0.4231500  0.0762100  0.1865000    0.00000       Uiso       1.00
       H78          H  0.4220000  0.0228000  0.4046400    0.00000       Uiso       1.00
       H79          H  0.6787800  0.3185400  0.6052400    0.00000       Uiso       1.00
       H80          H  0.7290100  0.3195600  0.3584800    0.00000       Uiso       1.00
       C81          C  0.0432500  0.8057900  0.1040500    0.00000       Uiso       1.00
       C82          C  0.0432500  0.8408800  0.2133400    0.00000       Uiso       1.00
       C83          C  0.9375100  0.7114201  0.7311100    0.00000       Uiso       1.00
       C84          C  0.9000000  0.7114400  0.6138600    0.00000       Uiso       1.00
       H81          H  0.0772900  0.7922500  0.0677900    0.00000       Uiso       1.00
       H82          H  0.0769200  0.8536500  0.2588100    0.00000       Uiso       1.00
       H83          H  0.9516200  0.6809900  0.7715000    0.00000       Uiso       1.00
       H84          H  0.8862700  0.6814001  0.5662500    0.00000       Uiso       1.00
       C85          C  0.0431300  0.9361001  0.7337500    0.00000       Uiso       1.00
       C86          C  0.0432800  0.9670500  0.8614700    0.00000       Uiso       1.00
       C87          C  0.8093600  0.7115400  0.0518100    0.00000       Uiso       1.00
       C88          C  0.7803900  0.7114000  0.9072500    0.00000       Uiso       1.00
       H85          H  0.0768500  0.9237900  0.6865000    0.00000       Uiso       1.00
       H86          H  0.0780000  0.9772000  0.9046400    0.00000       Uiso       1.00
       H87          H  0.8212200  0.6814600  0.1052400    0.00000       Uiso       1.00
       H88          H  0.7709900  0.6804400  0.8584800    0.00000       Uiso       1.00
       C89          C  0.5432500  0.3057900  0.6040500    0.00000       Uiso       1.00
       C90          C  0.5432500  0.3408800  0.7133400    0.00000       Uiso       1.00
       C91          C  0.4375100  0.2114200  0.2311100    0.00000       Uiso       1.00
       C92          C  0.4000000  0.2114400  0.1138600    0.00000       Uiso       1.00
       H89          H  0.5772900  0.2922500  0.5677900    0.00000       Uiso       1.00
       H90          H  0.5769200  0.3536500  0.7588100    0.00000       Uiso       1.00
       H91          H  0.4516200  0.1809900  0.2715000    0.00000       Uiso       1.00
       H92          H  0.3862700  0.1814000  0.0662500    0.00000       Uiso       1.00
       C93          C  0.5431300  0.4361000  0.2337500    0.00000       Uiso       1.00
       C94          C  0.5432800  0.4670500  0.3614700    0.00000       Uiso       1.00
       C95          C  0.3093600  0.2115400  0.5518100    0.00000       Uiso       1.00
       C96          C  0.2803900  0.2114000  0.4072500    0.00000       Uiso       1.00
       H93          H  0.5768499  0.4237900  0.1865000    0.00000       Uiso       1.00
       H94          H  0.5779999  0.4772000  0.4046400    0.00000       Uiso       1.00
       H95          H  0.3212200  0.1814600  0.6052400    0.00000       Uiso       1.00
       H96          H  0.2709900  0.1804400  0.3584800    0.00000       Uiso       1.00
       C97          C  0.0432500  0.1942100  0.8959500    0.00000       Uiso       1.00
       C98          C  0.0432500  0.1591200  0.7866600    0.00000       Uiso       1.00
       C99          C  0.9375100  0.2885800  0.2688900    0.00000       Uiso       1.00
      C100          C  0.9000000  0.2885600  0.3861400    0.00000       Uiso       1.00
       H97          H  0.0772900  0.2077500  0.9322100    0.00000       Uiso       1.00
       H98          H  0.0769200  0.1463500  0.7411900    0.00000       Uiso       1.00
       H99          H  0.9516200  0.3190100  0.2285000    0.00000       Uiso       1.00
      H100          H  0.8862700  0.3186000  0.4337500    0.00000       Uiso       1.00
      C101          C  0.0431300  0.0639000  0.2662500    0.00000       Uiso       1.00
      C102          C  0.0432800  0.0329500  0.1385300    0.00000       Uiso       1.00
      C103          C  0.8093600  0.2884600  0.9481900    0.00000       Uiso       1.00
      C104          C  0.7803900  0.2886000  0.0927500    0.00000       Uiso       1.00
      H101          H  0.0768500  0.0762100  0.3135000    0.00000       Uiso       1.00
      H102          H  0.0780000  0.0228000  0.0953600    0.00000       Uiso       1.00
      H103          H  0.8212200  0.3185400  0.8947601    0.00000       Uiso       1.00
      H104          H  0.7709900  0.3195600  0.1415200    0.00000       Uiso       1.00
      C105          C  0.5432500  0.6942101  0.3959500    0.00000       Uiso       1.00
      C106          C  0.5432500  0.6591200  0.2866600    0.00000       Uiso       1.00
      C107          C  0.4375100  0.7885800  0.7688900    0.00000       Uiso       1.00
      C108          C  0.4000000  0.7885600  0.8861400    0.00000       Uiso       1.00
      H105          H  0.5772900  0.7077500  0.4322100    0.00000       Uiso       1.00
      H106          H  0.5769200  0.6463500  0.2411900    0.00000       Uiso       1.00
      H107          H  0.4516200  0.8190100  0.7285000    0.00000       Uiso       1.00
      H108          H  0.3862700  0.8186000  0.9337500    0.00000       Uiso       1.00
      C109          C  0.5431300  0.5639000  0.7662500    0.00000       Uiso       1.00
      C110          C  0.5432800  0.5329500  0.6385300    0.00000       Uiso       1.00
      C111          C  0.3093600  0.7884600  0.4481900    0.00000       Uiso       1.00
      C112          C  0.2803900  0.7886000  0.5927500    0.00000       Uiso       1.00
      H109          H  0.5768499  0.5762100  0.8135000    0.00000       Uiso       1.00
      H110          H  0.5779999  0.5228000  0.5953600    0.00000       Uiso       1.00
      H111          H  0.3212200  0.8185400  0.3947600    0.00000       Uiso       1.00
      H112          H  0.2709900  0.8195600  0.6415200    0.00000       Uiso       1.00
      C113          C  0.9567500  0.3057900  0.8959500    0.00000       Uiso       1.00
      C114          C  0.9567500  0.3408800  0.7866600    0.00000       Uiso       1.00
      C115          C  0.0624900  0.2114200  0.2688900    0.00000       Uiso       1.00
      C116          C  0.1000000  0.2114400  0.3861400    0.00000       Uiso       1.00
      H113          H  0.9227100  0.2922500  0.9322100    0.00000       Uiso       1.00
      H114          H  0.9230800  0.3536500  0.7411900    0.00000       Uiso       1.00
      H115          H  0.0483800  0.1809900  0.2285000    0.00000       Uiso       1.00
      H116          H  0.1137300  0.1814000  0.4337500    0.00000       Uiso       1.00
      C117          C  0.9568700  0.4361000  0.2662500    0.00000       Uiso       1.00
      C118          C  0.9567200  0.4670500  0.1385300    0.00000       Uiso       1.00
      C119          C  0.1906400  0.2115400  0.9481900    0.00000       Uiso       1.00
      C120          C  0.2196100  0.2114000  0.0927500    0.00000       Uiso       1.00
      H117          H  0.9231499  0.4237900  0.3135000    0.00000       Uiso       1.00
      H118          H  0.9219999  0.4772000  0.0953600    0.00000       Uiso       1.00
      H119          H  0.1787800  0.1814600  0.8947601    0.00000       Uiso       1.00
      H120          H  0.2290100  0.1804400  0.1415200    0.00000       Uiso       1.00
      C121          C  0.4567500  0.8057900  0.3959500    0.00000       Uiso       1.00
      C122          C  0.4567500  0.8408800  0.2866600    0.00000       Uiso       1.00
      C123          C  0.5624900  0.7114201  0.7688900    0.00000       Uiso       1.00
      C124          C  0.6000000  0.7114400  0.8861400    0.00000       Uiso       1.00
      H121          H  0.4227100  0.7922500  0.4322100    0.00000       Uiso       1.00
      H122          H  0.4230800  0.8536500  0.2411900    0.00000       Uiso       1.00
      H123          H  0.5483800  0.6809900  0.7285000    0.00000       Uiso       1.00
      H124          H  0.6137300  0.6814001  0.9337500    0.00000       Uiso       1.00
      C125          C  0.4568700  0.9361001  0.7662500    0.00000       Uiso       1.00
      C126          C  0.4567200  0.9670500  0.6385300    0.00000       Uiso       1.00
      C127          C  0.6906400  0.7115400  0.4481900    0.00000       Uiso       1.00
      C128          C  0.7196100  0.7114000  0.5927500    0.00000       Uiso       1.00
      H125          H  0.4231500  0.9237900  0.8135000    0.00000       Uiso       1.00
      H126          H  0.4220000  0.9772000  0.5953600    0.00000       Uiso       1.00
      H127          H  0.6787800  0.6814600  0.3947600    0.00000       Uiso       1.00
      H128          H  0.7290100  0.6804400  0.6415200    0.00000       Uiso       1.00
      C129          C  0.0000000  0.2500000  0.0817900    0.00000       Uiso       1.00
      C130          C  0.5000000  0.7500000  0.5817900    0.00000       Uiso       1.00
      C131          C  0.0000000  0.7500000  0.9182100    0.00000       Uiso       1.00
      C132          C  0.5000000  0.2500000  0.4182100    0.00000       Uiso       1.00
      C133          C  0.0000000  0.2888800  0.9603200    0.00000       Uiso       1.00
      C134          C  0.0000000  0.3589700  0.7339700    0.00000       Uiso       1.00
        N1          N  0.0000000  0.3936100  0.6159600    0.00000       Uiso       1.00
      C135          C  0.0000000  0.4833900  0.0701600    0.00000       Uiso       1.00
      C136          C  0.0000000  0.4206600  0.3307700    0.00000       Uiso       1.00
      C137          C  0.0000000  0.3859300  0.4548200    0.00000       Uiso       1.00
      H129          H  0.0000000  0.3534400  0.4099600    0.00000       Uiso       1.00
      C138          C  0.5000000  0.7888800  0.4603200    0.00000       Uiso       1.00
      C139          C  0.5000000  0.8589700  0.2339700    0.00000       Uiso       1.00
        N2          N  0.5000000  0.8936100  0.1159600    0.00000       Uiso       1.00
      C140          C  0.5000000  0.9833900  0.5701600    0.00000       Uiso       1.00
      C141          C  0.5000000  0.9206600  0.8307700    0.00000       Uiso       1.00
      C142          C  0.5000000  0.8859300  0.9548200    0.00000       Uiso       1.00
      H130          H  0.5000000  0.8534400  0.9099600    0.00000       Uiso       1.00
      C143          C  0.0000000  0.2111200  0.9603200    0.00000       Uiso       1.00
      C144          C  0.0000000  0.1410300  0.7339700    0.00000       Uiso       1.00
        N3          N  0.0000000  0.1063900  0.6159600    0.00000       Uiso       1.00
      C145          C  0.0000000  0.0166100  0.0701600    0.00000       Uiso       1.00
      C146          C  0.0000000  0.0793400  0.3307700    0.00000       Uiso       1.00
      C147          C  0.0000000  0.1140700  0.4548200    0.00000       Uiso       1.00
      H131          H  0.0000000  0.1465600  0.4099600    0.00000       Uiso       1.00
      C148          C  0.5000000  0.7111200  0.4603200    0.00000       Uiso       1.00
      C149          C  0.5000000  0.6410300  0.2339700    0.00000       Uiso       1.00
        N4          N  0.5000000  0.6063900  0.1159600    0.00000       Uiso       1.00
      C150          C  0.5000000  0.5166100  0.5701600    0.00000       Uiso       1.00
      C151          C  0.5000000  0.5793400  0.8307700    0.00000       Uiso       1.00
      C152          C  0.5000000  0.6140700  0.9548200    0.00000       Uiso       1.00
      H132          H  0.5000000  0.6465600  0.9099600    0.00000       Uiso       1.00
      C153          C  0.0000000  0.7888800  0.0396800    0.00000       Uiso       1.00
      C154          C  0.0000000  0.8589700  0.2660300    0.00000       Uiso       1.00
        N5          N  0.0000000  0.8936100  0.3840400    0.00000       Uiso       1.00
      C155          C  0.0000000  0.9833900  0.9298400    0.00000       Uiso       1.00
      C156          C  0.0000000  0.9206600  0.6692300    0.00000       Uiso       1.00
      C157          C  0.0000000  0.8859300  0.5451800    0.00000       Uiso       1.00
      H133          H  0.0000000  0.8534400  0.5900400    0.00000       Uiso       1.00
      C158          C  0.5000000  0.2888800  0.5396800    0.00000       Uiso       1.00
      C159          C  0.5000000  0.3589700  0.7660300    0.00000       Uiso       1.00
        N6          N  0.5000000  0.3936100  0.8840401    0.00000       Uiso       1.00
      C160          C  0.5000000  0.4833900  0.4298400    0.00000       Uiso       1.00
      C161          C  0.5000000  0.4206600  0.1692300    0.00000       Uiso       1.00
      C162          C  0.5000000  0.3859300  0.0451800    0.00000       Uiso       1.00
      H134          H  0.5000000  0.3534400  0.0900400    0.00000       Uiso       1.00
      C163          C  0.0000000  0.7111200  0.0396800    0.00000       Uiso       1.00
      C164          C  0.0000000  0.6410300  0.2660300    0.00000       Uiso       1.00
        N7          N  0.0000000  0.6063900  0.3840400    0.00000       Uiso       1.00
      C165          C  0.0000000  0.5166100  0.9298400    0.00000       Uiso       1.00
      C166          C  0.0000000  0.5793400  0.6692300    0.00000       Uiso       1.00
      C167          C  0.0000000  0.6140700  0.5451800    0.00000       Uiso       1.00
      H135          H  0.0000000  0.6465600  0.5900400    0.00000       Uiso       1.00
      C168          C  0.5000000  0.2111200  0.5396800    0.00000       Uiso       1.00
      C169          C  0.5000000  0.1410300  0.7660300    0.00000       Uiso       1.00
        N8          N  0.5000000  0.1063900  0.8840401    0.00000       Uiso       1.00
      C170          C  0.5000000  0.0166100  0.4298400    0.00000       Uiso       1.00
      C171          C  0.5000000  0.0793400  0.1692300    0.00000       Uiso       1.00
      C172          C  0.5000000  0.1140700  0.0451800    0.00000       Uiso       1.00
      H136          H  0.5000000  0.1465600  0.0900400    0.00000       Uiso       1.00
      C173          C  0.9563000  0.2500000  0.2035900    0.00000       Uiso       1.00
      C174          C  0.8810500  0.2500000  0.4447700    0.00000       Uiso       1.00
        N9          N  0.8449200  0.2500000  0.5726900    0.00000       Uiso       1.00
      C175          C  0.7652900  0.2500000  0.1703800    0.00000       Uiso       1.00
      C176          C  0.8238500  0.2500000  0.8754500    0.00000       Uiso       1.00
      C177          C  0.8585100  0.2500000  0.7363700    0.00000       Uiso       1.00
      H137          H  0.6041386  0.2500000  0.7400669    0.00000       Uiso       1.00
      C178          C  0.4563000  0.7500000  0.7035900    0.00000       Uiso       1.00
      C179          C  0.3810500  0.7500000  0.9447700    0.00000       Uiso       1.00
       N10          N  0.3449200  0.7500000  0.0726900    0.00000       Uiso       1.00
      C180          C  0.2652900  0.7500000  0.6703800    0.00000       Uiso       1.00
      C181          C  0.3238500  0.7500000  0.3754500    0.00000       Uiso       1.00
      C182          C  0.3585100  0.7500000  0.2363700    0.00000       Uiso       1.00
      H138          H  0.1041386  0.7500000  0.2400669    0.00000       Uiso       1.00
      C183          C  0.0437000  0.2500000  0.2035900    0.00000       Uiso       1.00
      C184          C  0.1189500  0.2500000  0.4447700    0.00000       Uiso       1.00
       N11          N  0.1550800  0.2500000  0.5726900    0.00000       Uiso       1.00
      C185          C  0.2347100  0.2500000  0.1703800    0.00000       Uiso       1.00
      C186          C  0.1761500  0.2500000  0.8754500    0.00000       Uiso       1.00
      C187          C  0.1414900  0.2500000  0.7363700    0.00000       Uiso       1.00
      H139          H  0.3958614  0.2500000  0.7400669    0.00000       Uiso       1.00
      C188          C  0.5437000  0.7500000  0.7035900    0.00000       Uiso       1.00
      C189          C  0.6189500  0.7500000  0.9447700    0.00000       Uiso       1.00
       N12          N  0.6550800  0.7500000  0.0726900    0.00000       Uiso       1.00
      C190          C  0.7347100  0.7500000  0.6703800    0.00000       Uiso       1.00
      C191          C  0.6761500  0.7500000  0.3754500    0.00000       Uiso       1.00
      C192          C  0.6414900  0.7500000  0.2363700    0.00000       Uiso       1.00
      H140          H  0.8958614  0.7500000  0.2400669    0.00000       Uiso       1.00
      C193          C  0.0437000  0.7500000  0.7964100    0.00000       Uiso       1.00
      C194          C  0.1189500  0.7500000  0.5552300    0.00000       Uiso       1.00
       N13          N  0.1550800  0.7500000  0.4273100    0.00000       Uiso       1.00
      C195          C  0.2347100  0.7500000  0.8296201    0.00000       Uiso       1.00
      C196          C  0.1761500  0.7500000  0.1245500    0.00000       Uiso       1.00
      C197          C  0.1414900  0.7500000  0.2636300    0.00000       Uiso       1.00
      H141          H  0.3958614  0.7500000  0.2599331    0.00000       Uiso       1.00
      C198          C  0.5437000  0.2500000  0.2964100    0.00000       Uiso       1.00
      C199          C  0.6189500  0.2500000  0.0552300    0.00000       Uiso       1.00
       N14          N  0.6550800  0.2500000  0.9273100    0.00000       Uiso       1.00
      C200          C  0.7347100  0.2500000  0.3296200    0.00000       Uiso       1.00
      C201          C  0.6761500  0.2500000  0.6245500    0.00000       Uiso       1.00
      C202          C  0.6414900  0.2500000  0.7636300    0.00000       Uiso       1.00
      H142          H  0.8958614  0.2500000  0.7599332    0.00000       Uiso       1.00
      C203          C  0.9563000  0.7500000  0.7964100    0.00000       Uiso       1.00
      C204          C  0.8810500  0.7500000  0.5552300    0.00000       Uiso       1.00
       N15          N  0.8449200  0.7500000  0.4273100    0.00000       Uiso       1.00
      C205          C  0.7652900  0.7500000  0.8296201    0.00000       Uiso       1.00
      C206          C  0.8238500  0.7500000  0.1245500    0.00000       Uiso       1.00
      C207          C  0.8585100  0.7500000  0.2636300    0.00000       Uiso       1.00
      H143          H  0.6041386  0.7500000  0.2599331    0.00000       Uiso       1.00
      C208          C  0.4563000  0.2500000  0.2964100    0.00000       Uiso       1.00
      C209          C  0.3810500  0.2500000  0.0552300    0.00000       Uiso       1.00
       N16          N  0.3449200  0.2500000  0.9273100    0.00000       Uiso       1.00
      C210          C  0.2652900  0.2500000  0.3296200    0.00000       Uiso       1.00
      C211          C  0.3238500  0.2500000  0.6245500    0.00000       Uiso       1.00
      C212          C  0.3585100  0.2500000  0.7636300    0.00000       Uiso       1.00
      H144          H  0.1041386  0.2500000  0.7599332    0.00000       Uiso       1.00
