data_COF-366-ff
_audit_creation_date              0000-00-00
_audit_creation_method            'LanYouShi'
_symmetry_space_group_name_H-M    'P1'
_cell_length_a                    25.4169998
_cell_length_b                    12.3769999
_cell_length_c                    25.4169998
_cell_angle_alpha                 90.0000000
_cell_angle_beta                  90.0000000
_cell_angle_gamma                 90.0000000
loop_
_atom_site_label
_atom_site_type_symbol
_atom_site_fract_x
_atom_site_fract_y
_atom_site_fract_z
_atom_site_U_iso_or_equiv
_atom_site_adp_type
_atom_site_occupancy
        C1          C  0.0080000  0.2360000  0.3060000    0.00000       Uiso       1.00
        C2          C  0.0340000  0.3230000  0.2830000    0.00000       Uiso       1.00
        C3          C  0.0330000  0.3390000  0.2280000    0.00000       Uiso       1.00
        C4          C  0.0430000  0.1480000  0.4660000    0.00000       Uiso       1.00
        C5          C  0.0090000  0.2650000  0.1950000    0.00000       Uiso       1.00
        C6          C  0.0070000  0.2820000  0.1370000    0.00000       Uiso       1.00
        N1          N  0.0110000  0.2240000  0.3590000    0.00000       Uiso       1.00
        C7          C  0.9830000  0.1690000  0.2180000    0.00000       Uiso       1.00
        C8          C  0.9800000  0.1570000  0.2720000    0.00000       Uiso       1.00
        C9          C  0.9830000  0.1540000  0.3890000    0.00000       Uiso       1.00
       C10          C  0.9490000  0.1460000  0.4800000    0.00000       Uiso       1.00
       C11          C  0.9920000  0.1480000  0.4450000    0.00000       Uiso       1.00
        N2          N  0.9450000  0.2870000  0.0590000    0.00000       Uiso       1.00
       C12          C  0.9550000  0.2880000  0.1120000    0.00000       Uiso       1.00
       C13          C  0.9080000  0.2900000  0.1400000    0.00000       Uiso       1.00
       C14          C  0.8920000  0.2860000  0.0550000    0.00000       Uiso       1.00
       C15          C  0.8680000  0.2860000  0.1040000    0.00000       Uiso       1.00
        H1          H  0.0544576  0.3810630  0.3074794    0.00000       Uiso       1.00
        H2          H  0.0521455  0.4092416  0.2116837    0.00000       Uiso       1.00
        H3          H  0.0768147  0.1479325  0.4400554    0.00000       Uiso       1.00
        H4          H  0.9641431  0.1101275  0.1927481    0.00000       Uiso       1.00
        H5          H  0.9584498  0.0903592  0.2887727    0.00000       Uiso       1.00
        H6          H  0.9403571  0.1618519  0.3797520    0.00000       Uiso       1.00
        H7          H  0.9090062  0.1454569  0.4652677    0.00000       Uiso       1.00
        H8          H  0.9028524  0.2918297  0.1822274    0.00000       Uiso       1.00
        H9          H  0.8267236  0.2819791  0.1138485    0.00000       Uiso       1.00
       H10          H  0.9705716  0.7192361  0.9719336    0.00000       Uiso       1.00
       C16          C  0.3060000  0.2360000  0.9920000    0.00000       Uiso       1.00
       C17          C  0.2830000  0.3230000  0.9660000    0.00000       Uiso       1.00
       C18          C  0.2280000  0.3390000  0.9670000    0.00000       Uiso       1.00
       C19          C  0.4660000  0.1480000  0.9570000    0.00000       Uiso       1.00
       C20          C  0.1950000  0.2650000  0.9910001    0.00000       Uiso       1.00
       C21          C  0.1370000  0.2820000  0.9930000    0.00000       Uiso       1.00
        N3          N  0.3590000  0.2240000  0.9890000    0.00000       Uiso       1.00
       C22          C  0.2180000  0.1690000  0.0170000    0.00000       Uiso       1.00
       C23          C  0.2720000  0.1570000  0.0200000    0.00000       Uiso       1.00
       C24          C  0.3890000  0.1540000  0.0170000    0.00000       Uiso       1.00
       C25          C  0.4800000  0.1460000  0.0510000    0.00000       Uiso       1.00
       C26          C  0.4450000  0.1480000  0.0080000    0.00000       Uiso       1.00
        N4          N  0.0590000  0.2870000  0.0550000    0.00000       Uiso       1.00
       C27          C  0.1120000  0.2880000  0.0450000    0.00000       Uiso       1.00
       C28          C  0.1400000  0.2900000  0.0920000    0.00000       Uiso       1.00
       C29          C  0.0550000  0.2860000  0.1080000    0.00000       Uiso       1.00
       C30          C  0.1040000  0.2860000  0.1320000    0.00000       Uiso       1.00
       H11          H  0.3074794  0.3810631  0.9455425    0.00000       Uiso       1.00
       H12          H  0.2116840  0.4092419  0.9478547    0.00000       Uiso       1.00
       H13          H  0.4400554  0.1479325  0.9231853    0.00000       Uiso       1.00
       H14          H  0.1927479  0.1101288  0.0358577    0.00000       Uiso       1.00
       H15          H  0.2887727  0.0903595  0.0415504    0.00000       Uiso       1.00
       H16          H  0.3797520  0.1618519  0.0596429    0.00000       Uiso       1.00
       H17          H  0.4652677  0.1454569  0.0909938    0.00000       Uiso       1.00
       H18          H  0.1822271  0.2918297  0.0971474    0.00000       Uiso       1.00
       H19          H  0.1138482  0.2819787  0.1732761    0.00000       Uiso       1.00
       C31          C  0.9920000  0.7640000  0.6940000    0.00000       Uiso       1.00
       C32          C  0.9660000  0.6770000  0.7170000    0.00000       Uiso       1.00
       C33          C  0.9670000  0.6610000  0.7720000    0.00000       Uiso       1.00
       C34          C  0.9570000  0.8520000  0.5340000    0.00000       Uiso       1.00
       C35          C  0.9910001  0.7350001  0.8050000    0.00000       Uiso       1.00
       C36          C  0.9930000  0.7180001  0.8630000    0.00000       Uiso       1.00
        N5          N  0.9890000  0.7760000  0.6410000    0.00000       Uiso       1.00
       C37          C  0.0170000  0.8310000  0.7820001    0.00000       Uiso       1.00
       C38          C  0.0200000  0.8430001  0.7280000    0.00000       Uiso       1.00
       C39          C  0.0170000  0.8460000  0.6110000    0.00000       Uiso       1.00
       C40          C  0.0510000  0.8540000  0.5200000    0.00000       Uiso       1.00
       C41          C  0.0080000  0.8520000  0.5550000    0.00000       Uiso       1.00
        N6          N  0.0550000  0.7130001  0.9410000    0.00000       Uiso       1.00
       C42          C  0.0450000  0.7120000  0.8880000    0.00000       Uiso       1.00
       C43          C  0.0920000  0.7100000  0.8600000    0.00000       Uiso       1.00
       C44          C  0.1080000  0.7140000  0.9450001    0.00000       Uiso       1.00
       C45          C  0.1320000  0.7140000  0.8960000    0.00000       Uiso       1.00
       H20          H  0.9455425  0.6189370  0.6925206    0.00000       Uiso       1.00
       H21          H  0.9478545  0.5907585  0.7883162    0.00000       Uiso       1.00
       H22          H  0.9231853  0.8520675  0.5599446    0.00000       Uiso       1.00
       H23          H  0.0358569  0.8898726  0.8072519    0.00000       Uiso       1.00
       H24          H  0.0415502  0.9096409  0.7112273    0.00000       Uiso       1.00
       H25          H  0.0596429  0.8381481  0.6202480    0.00000       Uiso       1.00
       H26          H  0.0909938  0.8545431  0.5347323    0.00000       Uiso       1.00
       H27          H  0.0971477  0.7081702  0.8177726    0.00000       Uiso       1.00
       H28          H  0.1732764  0.7180209  0.8861515    0.00000       Uiso       1.00
       H29          H  0.0294284  0.2807639  0.0280664    0.00000       Uiso       1.00
       C46          C  0.6940000  0.7640000  0.0080000    0.00000       Uiso       1.00
       C47          C  0.7170000  0.6770000  0.0340000    0.00000       Uiso       1.00
       C48          C  0.7720000  0.6610000  0.0330000    0.00000       Uiso       1.00
       C49          C  0.5340000  0.8520000  0.0430000    0.00000       Uiso       1.00
       C50          C  0.8050000  0.7350001  0.0090000    0.00000       Uiso       1.00
       C51          C  0.8630000  0.7180001  0.0070000    0.00000       Uiso       1.00
        N7          N  0.6410000  0.7760000  0.0110000    0.00000       Uiso       1.00
       C52          C  0.7820001  0.8310000  0.9830000    0.00000       Uiso       1.00
       C53          C  0.7280000  0.8430001  0.9800000    0.00000       Uiso       1.00
       C54          C  0.6110000  0.8460000  0.9830000    0.00000       Uiso       1.00
       C55          C  0.5200000  0.8540000  0.9490000    0.00000       Uiso       1.00
       C56          C  0.5550000  0.8520000  0.9920000    0.00000       Uiso       1.00
        N8          N  0.9410000  0.7130001  0.9450000    0.00000       Uiso       1.00
       C57          C  0.8880000  0.7120000  0.9550000    0.00000       Uiso       1.00
       C58          C  0.8600000  0.7100000  0.9080000    0.00000       Uiso       1.00
       C59          C  0.9450001  0.7140000  0.8920000    0.00000       Uiso       1.00
       C60          C  0.8960000  0.7140000  0.8680000    0.00000       Uiso       1.00
       H30          H  0.6925206  0.6189370  0.0544575    0.00000       Uiso       1.00
       H31          H  0.7883161  0.5907581  0.0521453    0.00000       Uiso       1.00
       H32          H  0.5599446  0.8520675  0.0768147    0.00000       Uiso       1.00
       H33          H  0.8072521  0.8898712  0.9641423    0.00000       Uiso       1.00
       H34          H  0.7112273  0.9096406  0.9584495    0.00000       Uiso       1.00
       H35          H  0.6202480  0.8381481  0.9403571    0.00000       Uiso       1.00
       H36          H  0.5347323  0.8545431  0.9090062    0.00000       Uiso       1.00
       H37          H  0.8177729  0.7081704  0.9028527    0.00000       Uiso       1.00
       H38          H  0.8861519  0.7180213  0.8267239    0.00000       Uiso       1.00
       C61          C  0.9920000  0.2360000  0.6940000    0.00000       Uiso       1.00
       C62          C  0.9660000  0.3230000  0.7170000    0.00000       Uiso       1.00
       C63          C  0.9670000  0.3390000  0.7720000    0.00000       Uiso       1.00
       C64          C  0.9570000  0.1480000  0.5340000    0.00000       Uiso       1.00
       C65          C  0.9910001  0.2650000  0.8050000    0.00000       Uiso       1.00
       C66          C  0.9930000  0.2820000  0.8630000    0.00000       Uiso       1.00
        N9          N  0.9890000  0.2240000  0.6410000    0.00000       Uiso       1.00
       C67          C  0.0170000  0.1690000  0.7820001    0.00000       Uiso       1.00
       C68          C  0.0200000  0.1570000  0.7280000    0.00000       Uiso       1.00
       C69          C  0.0170000  0.1540000  0.6110000    0.00000       Uiso       1.00
       C70          C  0.0510000  0.1460000  0.5200000    0.00000       Uiso       1.00
       C71          C  0.0080000  0.1480000  0.5550000    0.00000       Uiso       1.00
       N10          N  0.0550000  0.2870000  0.9410000    0.00000       Uiso       1.00
       C72          C  0.0450000  0.2880000  0.8880000    0.00000       Uiso       1.00
       C73          C  0.0920000  0.2900000  0.8600000    0.00000       Uiso       1.00
       C74          C  0.1080000  0.2860000  0.9450001    0.00000       Uiso       1.00
       C75          C  0.1320000  0.2860000  0.8960000    0.00000       Uiso       1.00
       H39          H  0.9455425  0.3810630  0.6925206    0.00000       Uiso       1.00
       H40          H  0.9478545  0.4092416  0.7883162    0.00000       Uiso       1.00
       H41          H  0.9231853  0.1479325  0.5599446    0.00000       Uiso       1.00
       H42          H  0.0358569  0.1101275  0.8072519    0.00000       Uiso       1.00
       H43          H  0.0415502  0.0903592  0.7112273    0.00000       Uiso       1.00
       H44          H  0.0596429  0.1618519  0.6202480    0.00000       Uiso       1.00
       H45          H  0.0909938  0.1454569  0.5347323    0.00000       Uiso       1.00
       H46          H  0.0971477  0.2918297  0.8177726    0.00000       Uiso       1.00
       H47          H  0.1732764  0.2819791  0.8861515    0.00000       Uiso       1.00
       H48          H  0.0294284  0.7192361  0.0280664    0.00000       Uiso       1.00
       C76          C  0.6940000  0.2360000  0.0080000    0.00000       Uiso       1.00
       C77          C  0.7170000  0.3230000  0.0340000    0.00000       Uiso       1.00
       C78          C  0.7720000  0.3390000  0.0330000    0.00000       Uiso       1.00
       C79          C  0.5340000  0.1480000  0.0430000    0.00000       Uiso       1.00
       C80          C  0.8050000  0.2650000  0.0090000    0.00000       Uiso       1.00
       C81          C  0.8630000  0.2820000  0.0070000    0.00000       Uiso       1.00
       N11          N  0.6410000  0.2240000  0.0110000    0.00000       Uiso       1.00
       C82          C  0.7820001  0.1690000  0.9830000    0.00000       Uiso       1.00
       C83          C  0.7280000  0.1570000  0.9800000    0.00000       Uiso       1.00
       C84          C  0.6110000  0.1540000  0.9830000    0.00000       Uiso       1.00
       C85          C  0.5200000  0.1460000  0.9490000    0.00000       Uiso       1.00
       C86          C  0.5550000  0.1480000  0.9920000    0.00000       Uiso       1.00
       N12          N  0.9410000  0.2870000  0.9450000    0.00000       Uiso       1.00
       C87          C  0.8880000  0.2880000  0.9550000    0.00000       Uiso       1.00
       C88          C  0.8600000  0.2900000  0.9080000    0.00000       Uiso       1.00
       C89          C  0.9450001  0.2860000  0.8920000    0.00000       Uiso       1.00
       C90          C  0.8960000  0.2860000  0.8680000    0.00000       Uiso       1.00
       H49          H  0.6925206  0.3810631  0.0544575    0.00000       Uiso       1.00
       H50          H  0.7883161  0.4092419  0.0521453    0.00000       Uiso       1.00
       H51          H  0.5599446  0.1479325  0.0768147    0.00000       Uiso       1.00
       H52          H  0.8072521  0.1101288  0.9641423    0.00000       Uiso       1.00
       H53          H  0.7112273  0.0903595  0.9584495    0.00000       Uiso       1.00
       H54          H  0.6202480  0.1618519  0.9403571    0.00000       Uiso       1.00
       H55          H  0.5347323  0.1454569  0.9090062    0.00000       Uiso       1.00
       H56          H  0.8177729  0.2918297  0.9028527    0.00000       Uiso       1.00
       H57          H  0.8861519  0.2819787  0.8267239    0.00000       Uiso       1.00
       C91          C  0.0080000  0.7640000  0.3060000    0.00000       Uiso       1.00
       C92          C  0.0340000  0.6770000  0.2830000    0.00000       Uiso       1.00
       C93          C  0.0330000  0.6610000  0.2280000    0.00000       Uiso       1.00
       C94          C  0.0430000  0.8520000  0.4660000    0.00000       Uiso       1.00
       C95          C  0.0090000  0.7350001  0.1950000    0.00000       Uiso       1.00
       C96          C  0.0070000  0.7180001  0.1370000    0.00000       Uiso       1.00
       N13          N  0.0110000  0.7760000  0.3590000    0.00000       Uiso       1.00
       C97          C  0.9830000  0.8310000  0.2180000    0.00000       Uiso       1.00
       C98          C  0.9800000  0.8430001  0.2720000    0.00000       Uiso       1.00
       C99          C  0.9830000  0.8460000  0.3890000    0.00000       Uiso       1.00
      C100          C  0.9490000  0.8540000  0.4800000    0.00000       Uiso       1.00
      C101          C  0.9920000  0.8520000  0.4450000    0.00000       Uiso       1.00
       N14          N  0.9450000  0.7130001  0.0590000    0.00000       Uiso       1.00
      C102          C  0.9550000  0.7120000  0.1120000    0.00000       Uiso       1.00
      C103          C  0.9080000  0.7100000  0.1400000    0.00000       Uiso       1.00
      C104          C  0.8920000  0.7140000  0.0550000    0.00000       Uiso       1.00
      C105          C  0.8680000  0.7140000  0.1040000    0.00000       Uiso       1.00
       H58          H  0.0544576  0.6189370  0.3074794    0.00000       Uiso       1.00
       H59          H  0.0521455  0.5907585  0.2116837    0.00000       Uiso       1.00
       H60          H  0.0768147  0.8520675  0.4400554    0.00000       Uiso       1.00
       H61          H  0.9641431  0.8898726  0.1927481    0.00000       Uiso       1.00
       H62          H  0.9584498  0.9096409  0.2887727    0.00000       Uiso       1.00
       H63          H  0.9403571  0.8381481  0.3797520    0.00000       Uiso       1.00
       H64          H  0.9090062  0.8545431  0.4652677    0.00000       Uiso       1.00
       H65          H  0.9028524  0.7081702  0.1822274    0.00000       Uiso       1.00
       H66          H  0.8267236  0.7180209  0.1138485    0.00000       Uiso       1.00
       H67          H  0.9705716  0.2807639  0.9719337    0.00000       Uiso       1.00
      C106          C  0.3060000  0.7640000  0.9920000    0.00000       Uiso       1.00
      C107          C  0.2830000  0.6770000  0.9660000    0.00000       Uiso       1.00
      C108          C  0.2280000  0.6610000  0.9670000    0.00000       Uiso       1.00
      C109          C  0.4660000  0.8520000  0.9570000    0.00000       Uiso       1.00
      C110          C  0.1950000  0.7350001  0.9910001    0.00000       Uiso       1.00
      C111          C  0.1370000  0.7180001  0.9930000    0.00000       Uiso       1.00
       N15          N  0.3590000  0.7760000  0.9890000    0.00000       Uiso       1.00
      C112          C  0.2180000  0.8310000  0.0170000    0.00000       Uiso       1.00
      C113          C  0.2720000  0.8430001  0.0200000    0.00000       Uiso       1.00
      C114          C  0.3890000  0.8460000  0.0170000    0.00000       Uiso       1.00
      C115          C  0.4800000  0.8540000  0.0510000    0.00000       Uiso       1.00
      C116          C  0.4450000  0.8520000  0.0080000    0.00000       Uiso       1.00
       N16          N  0.0590000  0.7130001  0.0550000    0.00000       Uiso       1.00
      C117          C  0.1120000  0.7120000  0.0450000    0.00000       Uiso       1.00
      C118          C  0.1400000  0.7100000  0.0920000    0.00000       Uiso       1.00
      C119          C  0.0550000  0.7140000  0.1080000    0.00000       Uiso       1.00
      C120          C  0.1040000  0.7140000  0.1320000    0.00000       Uiso       1.00
       H68          H  0.3074794  0.6189370  0.9455425    0.00000       Uiso       1.00
       H69          H  0.2116840  0.5907581  0.9478547    0.00000       Uiso       1.00
       H70          H  0.4400554  0.8520675  0.9231853    0.00000       Uiso       1.00
       H71          H  0.1927479  0.8898712  0.0358577    0.00000       Uiso       1.00
       H72          H  0.2887727  0.9096406  0.0415504    0.00000       Uiso       1.00
       H73          H  0.3797520  0.8381481  0.0596429    0.00000       Uiso       1.00
       H74          H  0.4652677  0.8545431  0.0909938    0.00000       Uiso       1.00
       H75          H  0.1822271  0.7081704  0.0971474    0.00000       Uiso       1.00
       H76          H  0.1138482  0.7180213  0.1732761    0.00000       Uiso       1.00
