data_COF-42-bnn
_audit_creation_date              0000-00-00
_audit_creation_method            'LanYouShi'
_symmetry_space_group_name_H-M    'P1'
_cell_length_a                    29.9768009
_cell_length_b                    29.9768009
_cell_length_c                    4.0500002
_cell_angle_alpha                 90.0000000
_cell_angle_beta                  90.0000000
_cell_angle_gamma                 120.0000000
loop_
_atom_site_label
_atom_site_type_symbol
_atom_site_fract_x
_atom_site_fract_y
_atom_site_fract_z
_atom_site_U_iso_or_equiv
_atom_site_adp_type
_atom_site_occupancy
        H1          H  0.3361000  0.3240000 -0.2182000    0.00000       Uiso       1.00
        H2          H  0.4247000  0.3472000  0.2244000    0.00000       Uiso       1.00
        H3          H  0.6759999  0.0121000 -0.2182000    0.00000       Uiso       1.00
        H4          H  0.6528000  0.0775000  0.2244000    0.00000       Uiso       1.00
        H5          H  0.9879000  0.6639000 -0.2182000    0.00000       Uiso       1.00
        H6          H  0.9225000  0.5753000  0.2244000    0.00000       Uiso       1.00
        H7          H  0.6639000  0.6760000 -0.2182000    0.00000       Uiso       1.00
        H8          H  0.5753000  0.6528000  0.2244000    0.00000       Uiso       1.00
        H9          H  0.3240000  0.9879000 -0.2182000    0.00000       Uiso       1.00
       H10          H  0.3472000  0.9225000  0.2244000    0.00000       Uiso       1.00
       H11          H  0.0121000  0.3361000 -0.2182000    0.00000       Uiso       1.00
       H12          H  0.0775000  0.4247000  0.2244000    0.00000       Uiso       1.00
       H13          H  0.6639000  0.6760000  0.2182000    0.00000       Uiso       1.00
       H14          H  0.5753000  0.6528000 -0.2244000    0.00000       Uiso       1.00
       H15          H  0.3240000  0.9879000  0.2182000    0.00000       Uiso       1.00
       H16          H  0.3472000  0.9225000 -0.2244000    0.00000       Uiso       1.00
       H17          H  0.0121000  0.3361000  0.2182000    0.00000       Uiso       1.00
       H18          H  0.0775000  0.4247000 -0.2244000    0.00000       Uiso       1.00
       H19          H  0.3361000  0.3240000  0.2182000    0.00000       Uiso       1.00
       H20          H  0.4247000  0.3472000 -0.2244000    0.00000       Uiso       1.00
       H21          H  0.6759999  0.0121000  0.2182000    0.00000       Uiso       1.00
       H22          H  0.6528000  0.0775000 -0.2244000    0.00000       Uiso       1.00
       H23          H  0.9879000  0.6639000  0.2182000    0.00000       Uiso       1.00
       H24          H  0.9225000  0.5753000 -0.2244000    0.00000       Uiso       1.00
       H25          H  0.6542999  0.7214000  0.0000000    0.00000       Uiso       1.00
       H26          H  0.5880000  0.5249000  0.0000000    0.00000       Uiso       1.00
       H27          H  0.3908000  0.5262000  0.0000000    0.00000       Uiso       1.00
       H28          H  0.2671000  0.5776000  0.0000000    0.00000       Uiso       1.00
       H29          H  0.3295000  0.5506000  0.0000000    0.00000       Uiso       1.00
        C1          C  0.3835000  0.6795000  0.0000000    0.00000       Uiso       1.00
        C2          C  0.3710000  0.7171999  0.0000000    0.00000       Uiso       1.00
        C3          C  0.4615000  0.4489000  0.0000000    0.00000       Uiso       1.00
        C4          C  0.4512000  0.4880000  0.0000000    0.00000       Uiso       1.00
        C5          C  0.4688000  0.5768000  0.0000000    0.00000       Uiso       1.00
        C6          C  0.4873000  0.5394999  0.0000000    0.00000       Uiso       1.00
        C7          C  0.3590000  0.5891000  0.0000000    0.00000       Uiso       1.00
        C8          C  0.5910000  0.6461000  0.0000000    0.00000       Uiso       1.00
        O1          O  0.5840000  0.5973000  0.0000000    0.00000       Uiso       1.00
        C9          C  0.6468000  0.6824000  0.0000000    0.00000       Uiso       1.00
        N1          N  0.4191000  0.5630000  0.0000000    0.00000       Uiso       1.00
        N2          N  0.4052000  0.5998000  0.0000000    0.00000       Uiso       1.00
        O2          O  0.4980000  0.6210000  0.0000000    0.00000       Uiso       1.00
       H30          H  0.2786000  0.9328999  0.0000000    0.00000       Uiso       1.00
       H31          H  0.4751000  0.0631000  0.0000000    0.00000       Uiso       1.00
       H32          H  0.4738000  0.8645999  0.0000000    0.00000       Uiso       1.00
       H33          H  0.4224000  0.6895000  0.0000000    0.00000       Uiso       1.00
       H34          H  0.4494000  0.7789000  0.0000000    0.00000       Uiso       1.00
       C10          C  0.3205000  0.7040000  0.0000000    0.00000       Uiso       1.00
       C11          C  0.2828000  0.6538000  0.0000000    0.00000       Uiso       1.00
       C12          C  0.5511000  0.0126000  0.0000000    0.00000       Uiso       1.00
       C13          C  0.5120000  0.9632000  0.0000000    0.00000       Uiso       1.00
       C14          C  0.4232000  0.8920000  0.0000000    0.00000       Uiso       1.00
       C15          C  0.4605000  0.9478000  0.0000000    0.00000       Uiso       1.00
       C16          C  0.4109000  0.7699000  0.0000000    0.00000       Uiso       1.00
       C17          C  0.3539000  0.9449000  0.0000000    0.00000       Uiso       1.00
        O3          O  0.4027000  0.9866999  0.0000000    0.00000       Uiso       1.00
       C18          C  0.3176000  0.9644000  0.0000000    0.00000       Uiso       1.00
        N3          N  0.4370000  0.8561000  0.0000000    0.00000       Uiso       1.00
        N4          N  0.4002000  0.8054000  0.0000000    0.00000       Uiso       1.00
        O4          O  0.3790000  0.8770000  0.0000000    0.00000       Uiso       1.00
       H35          H  0.0671000  0.3457000  0.0000000    0.00000       Uiso       1.00
       H36          H  0.9369000  0.4120000  0.0000000    0.00000       Uiso       1.00
       H37          H  0.1354000  0.6091999  0.0000000    0.00000       Uiso       1.00
       H38          H  0.3105000  0.7329000  0.0000000    0.00000       Uiso       1.00
       H39          H  0.2211000  0.6705000  0.0000000    0.00000       Uiso       1.00
       C19          C  0.2960000  0.6165000  0.0000000    0.00000       Uiso       1.00
       C20          C  0.3462000  0.6290000  0.0000000    0.00000       Uiso       1.00
       C21          C  0.9874000  0.5385000  0.0000000    0.00000       Uiso       1.00
       C22          C  0.0368000  0.5487999  0.0000000    0.00000       Uiso       1.00
       C23          C  0.1080000  0.5312000  0.0000000    0.00000       Uiso       1.00
       C24          C  0.0522000  0.5127000  0.0000000    0.00000       Uiso       1.00
       C25          C  0.2301000  0.6410000  0.0000000    0.00000       Uiso       1.00
       C26          C  0.0551000  0.4089999  0.0000000    0.00000       Uiso       1.00
        O5          O  0.0133000  0.4160000  0.0000000    0.00000       Uiso       1.00
       C27          C  0.0356000  0.3532000  0.0000000    0.00000       Uiso       1.00
        N5          N  0.1439000  0.5809000  0.0000000    0.00000       Uiso       1.00
        N6          N  0.1946000  0.5947999  0.0000000    0.00000       Uiso       1.00
        O6          O  0.1230000  0.5020000  0.0000000    0.00000       Uiso       1.00
       H40          H  0.3457000  0.2786000  0.0000000    0.00000       Uiso       1.00
       H41          H  0.4120000  0.4751000  0.0000000    0.00000       Uiso       1.00
       H42          H  0.6092000  0.4738000  0.0000000    0.00000       Uiso       1.00
       H43          H  0.7329000  0.4224000  0.0000000    0.00000       Uiso       1.00
       H44          H  0.6705000  0.4494000  0.0000000    0.00000       Uiso       1.00
       C28          C  0.6165000  0.3205000  0.0000000    0.00000       Uiso       1.00
       C29          C  0.6290000  0.2828000  0.0000000    0.00000       Uiso       1.00
       C30          C  0.5385000  0.5511000  0.0000000    0.00000       Uiso       1.00
       C31          C  0.5488000  0.5120000  0.0000000    0.00000       Uiso       1.00
       C32          C  0.5312000  0.4232000  0.0000000    0.00000       Uiso       1.00
       C33          C  0.5127000  0.4605000  0.0000000    0.00000       Uiso       1.00
       C34          C  0.6410000  0.4109000  0.0000000    0.00000       Uiso       1.00
       C35          C  0.4090000  0.3539000  0.0000000    0.00000       Uiso       1.00
        O7          O  0.4160000  0.4027000  0.0000000    0.00000       Uiso       1.00
       C36          C  0.3532000  0.3176000  0.0000000    0.00000       Uiso       1.00
        N7          N  0.5809000  0.4370000  0.0000000    0.00000       Uiso       1.00
        N8          N  0.5948000  0.4002000  0.0000000    0.00000       Uiso       1.00
        O8          O  0.5020000  0.3790000  0.0000000    0.00000       Uiso       1.00
       H45          H  0.7214000  0.0671000  0.0000000    0.00000       Uiso       1.00
       H46          H  0.5249000  0.9369000  0.0000000    0.00000       Uiso       1.00
       H47          H  0.5262000  0.1354000  0.0000000    0.00000       Uiso       1.00
       H48          H  0.5776000  0.3105000  0.0000000    0.00000       Uiso       1.00
       H49          H  0.5506000  0.2211000  0.0000000    0.00000       Uiso       1.00
       C37          C  0.6794999  0.2960000  0.0000000    0.00000       Uiso       1.00
       C38          C  0.7172000  0.3462000  0.0000000    0.00000       Uiso       1.00
       C39          C  0.4489000  0.9874000  0.0000000    0.00000       Uiso       1.00
       C40          C  0.4880000  0.0368000  0.0000000    0.00000       Uiso       1.00
       C41          C  0.5768000  0.1080000  0.0000000    0.00000       Uiso       1.00
       C42          C  0.5395000  0.0522000  0.0000000    0.00000       Uiso       1.00
       C43          C  0.5890999  0.2301000  0.0000000    0.00000       Uiso       1.00
       C44          C  0.6461000  0.0551000  0.0000000    0.00000       Uiso       1.00
        O9          O  0.5973000  0.0133000  0.0000000    0.00000       Uiso       1.00
       C45          C  0.6824000  0.0356000  0.0000000    0.00000       Uiso       1.00
        N9          N  0.5630000  0.1439000  0.0000000    0.00000       Uiso       1.00
       N10          N  0.5998000  0.1946000  0.0000000    0.00000       Uiso       1.00
       O10          O  0.6210000  0.1230000  0.0000000    0.00000       Uiso       1.00
       H50          H  0.9329000  0.6543000  0.0000000    0.00000       Uiso       1.00
       H51          H  0.0631000  0.5880000  0.0000000    0.00000       Uiso       1.00
       H52          H  0.8645999  0.3908000  0.0000000    0.00000       Uiso       1.00
       H53          H  0.6895000  0.2671000  0.0000000    0.00000       Uiso       1.00
       H54          H  0.7789000  0.3295000  0.0000000    0.00000       Uiso       1.00
       C46          C  0.7040000  0.3835000  0.0000000    0.00000       Uiso       1.00
       C47          C  0.6538000  0.3710000  0.0000000    0.00000       Uiso       1.00
       C48          C  0.0126000  0.4615000  0.0000000    0.00000       Uiso       1.00
       C49          C  0.9632000  0.4512000  0.0000000    0.00000       Uiso       1.00
       C50          C  0.8920000  0.4688000  0.0000000    0.00000       Uiso       1.00
       C51          C  0.9478000  0.4873000  0.0000000    0.00000       Uiso       1.00
       C52          C  0.7699000  0.3590000  0.0000000    0.00000       Uiso       1.00
       C53          C  0.9449000  0.5910000  0.0000000    0.00000       Uiso       1.00
       O11          O  0.9866999  0.5839999  0.0000000    0.00000       Uiso       1.00
       C54          C  0.9643999  0.6468000  0.0000000    0.00000       Uiso       1.00
       N11          N  0.8560999  0.4191000  0.0000000    0.00000       Uiso       1.00
       N12          N  0.8054000  0.4052000  0.0000000    0.00000       Uiso       1.00
       O12          O  0.8770000  0.4980000  0.0000000    0.00000       Uiso       1.00
