data_3D-Por-COF
_audit_creation_date              0000-00-00
_audit_creation_method            'LanYouShi'
_symmetry_space_group_name_H-M    'P1'
_cell_length_a                    43.9031982
_cell_length_b                    23.5002995
_cell_length_c                    21.3780994
_cell_angle_alpha                 90.0000000
_cell_angle_beta                  90.0000000
_cell_angle_gamma                 90.0000000
loop_
_atom_site_label
_atom_site_type_symbol
_atom_site_fract_x
_atom_site_fract_y
_atom_site_fract_z
_atom_site_U_iso_or_equiv
_atom_site_adp_type
_atom_site_occupancy
        C1          C  0.4218100  0.5721400  0.6965700    0.00000       Uiso       1.00
        C2          C  0.3988700  0.5695600  0.7415400    0.00000       Uiso       1.00
        C3          C  0.2925600  0.5919800  0.8579100    0.00000       Uiso       1.00
        C4          C  0.2698400  0.5925400  0.9034501    0.00000       Uiso       1.00
        C5          C  0.0810600  0.6661900  0.4785800    0.00000       Uiso       1.00
        C6          C  0.1036400  0.6244400  0.4813600    0.00000       Uiso       1.00
        C7          C  0.1804800  0.4694100  0.4363100    0.00000       Uiso       1.00
        C8          C  0.2015200  0.4249000  0.4344000    0.00000       Uiso       1.00
        H1          H  0.6035400  0.6862100  0.6134400    0.00000       Uiso       1.00
        H2          H  0.6440100  0.6816000  0.6926200    0.00000       Uiso       1.00
        H3          H  0.6936100  0.7337200  0.8483200    0.00000       Uiso       1.00
        H4          H  0.7323000  0.7354000  0.9305600    0.00000       Uiso       1.00
        H5          H  0.9017900  0.7386100  0.6118000    0.00000       Uiso       1.00
        H6          H  0.8620800  0.6653000  0.6168500    0.00000       Uiso       1.00
        H7          H  0.8197400  0.4931800  0.5928600    0.00000       Uiso       1.00
        H8          H  0.7834800  0.4157800  0.5901400    0.00000       Uiso       1.00
        C9          C  0.3972300  0.3465100  0.1490600    0.00000       Uiso       1.00
       C10          C  0.3742900  0.3491000  0.1940600    0.00000       Uiso       1.00
       C11          C  0.2958700  0.3056400  0.3630500    0.00000       Uiso       1.00
       C12          C  0.2734900  0.3049300  0.4092800    0.00000       Uiso       1.00
       C13          C  0.0817900  0.9573401  0.9757500    0.00000       Uiso       1.00
       C14          C  0.1040400  0.9149900  0.9786000    0.00000       Uiso       1.00
       C15          C  0.1846400  0.7657101  0.9332100    0.00000       Uiso       1.00
       C16          C  0.2057100  0.7212101  0.9317900    0.00000       Uiso       1.00
        H9          H  0.5598900  0.4585900  0.1978300    0.00000       Uiso       1.00
       H10          H  0.6001500  0.4629000  0.2773600    0.00000       Uiso       1.00
       H11          H  0.7002301  0.4482800  0.3385100    0.00000       Uiso       1.00
       H12          H  0.7388200  0.4478800  0.4197300    0.00000       Uiso       1.00
       H13          H  0.9037800  0.0237700  0.1139800    0.00000       Uiso       1.00
       H14          H  0.8647400  0.9491500  0.1193800    0.00000       Uiso       1.00
       H15          H  0.8277500  0.7710600  0.0896700    0.00000       Uiso       1.00
       H16          H  0.7913700  0.6931300  0.0876500    0.00000       Uiso       1.00
       C17          C  0.3541800  0.3881500  0.6808600    0.00000       Uiso       1.00
       C18          C  0.1482200  0.4203800  0.0356000    0.00000       Uiso       1.00
       C19          C  0.4359500  0.6072400  0.5382200    0.00000       Uiso       1.00
       C20          C  0.4448500  0.6153000  0.6008500    0.00000       Uiso       1.00
       C21          C  0.4210100  0.6138100  0.6497400    0.00000       Uiso       1.00
       C22          C  0.3748200  0.6085800  0.7403900    0.00000       Uiso       1.00
        N1          N  0.3302300  0.6439500  0.7934000    0.00000       Uiso       1.00
       C23          C  0.3060100  0.6429700  0.8381001    0.00000       Uiso       1.00
       C24          C  0.2594300  0.6442700  0.9294300    0.00000       Uiso       1.00
       C25          C  0.5942400  0.5892500  0.5177900    0.00000       Uiso       1.00
       H17          H  0.6130700  0.5792600  0.4264100    0.00000       Uiso       1.00
       C26          C  0.9753900  0.2655600  0.0308300    0.00000       Uiso       1.00
       C27          C  0.9850501  0.3232600  0.0471400    0.00000       Uiso       1.00
       C28          C  0.9210700  0.2924400  0.0255700    0.00000       Uiso       1.00
       C29          C  0.8756201  0.3764200  0.0312000    0.00000       Uiso       1.00
        N2          N  0.8485300  0.4586400  0.9922301    0.00000       Uiso       1.00
       C30          C  0.8266301  0.5039001  0.9926701    0.00000       Uiso       1.00
       C31          C  0.7834401  0.5933200  0.9890401    0.00000       Uiso       1.00
       C32          C  0.0550000  0.2481900  0.0231000    0.00000       Uiso       1.00
       H18          H  0.9707600  0.3594100  0.0578100    0.00000       Uiso       1.00
       H19          H  0.3567300  0.4209600  0.6457200    0.00000       Uiso       1.00
       H20          H  0.1633400  0.4192100  0.0753600    0.00000       Uiso       1.00
       C33          C  0.3967800  0.6568900  0.3266200    0.00000       Uiso       1.00
       C34          C  0.3747500  0.6549500  0.2796400    0.00000       Uiso       1.00
       C35          C  0.2938000  0.6964300  0.1150400    0.00000       Uiso       1.00
       C36          C  0.2711100  0.6966300  0.0693800    0.00000       Uiso       1.00
       C37          C  0.0983700  0.0064200  0.5759900    0.00000       Uiso       1.00
       C38          C  0.1205100  0.0488700  0.5790100    0.00000       Uiso       1.00
       C39          C  0.1821200  0.2411400  0.5454900    0.00000       Uiso       1.00
       C40          C  0.2030000  0.2858500  0.5442000    0.00000       Uiso       1.00
       H21          H  0.5565800  0.5519300  0.2734900    0.00000       Uiso       1.00
       H22          H  0.5949700  0.5493100  0.1903100    0.00000       Uiso       1.00
       H23          H  0.6910700  0.5546200  0.1178200    0.00000       Uiso       1.00
       H24          H  0.7299401  0.5546000  0.0372600    0.00000       Uiso       1.00
       H25          H  0.9332001  0.0405600  0.4357300    0.00000       Uiso       1.00
       H26          H  0.8940200  0.1153100  0.4407100    0.00000       Uiso       1.00
       H27          H  0.8230101  0.2151800  0.3900400    0.00000       Uiso       1.00
       H28          H  0.7867200  0.2941200  0.3867900    0.00000       Uiso       1.00
       C41          C  0.4243300  0.4191000  0.7754501    0.00000       Uiso       1.00
       C42          C  0.4024600  0.4207200  0.7283300    0.00000       Uiso       1.00
       C43          C  0.2987100  0.4053900  0.6045300    0.00000       Uiso       1.00
       C44          C  0.2759100  0.4054400  0.5593000    0.00000       Uiso       1.00
       C45          C  0.0996600  0.2931100  0.0751900    0.00000       Uiso       1.00
       C46          C  0.1222000  0.3348200  0.0780100    0.00000       Uiso       1.00
       C47          C  0.1866800  0.5240200  0.0480100    0.00000       Uiso       1.00
       C48          C  0.2076700  0.5685500  0.0462800    0.00000       Uiso       1.00
       H29          H  0.6054600  0.3126100  0.8642800    0.00000       Uiso       1.00
       H30          H  0.6444000  0.3162600  0.7817400    0.00000       Uiso       1.00
       H31          H  0.6988301  0.2639400  0.6357900    0.00000       Uiso       1.00
       H32          H  0.7379100  0.2627500  0.5546001    0.00000       Uiso       1.00
       H33          H  0.9347801  0.3336000  0.9399000    0.00000       Uiso       1.00
       H34          H  0.8950700  0.4073100  0.9448100    0.00000       Uiso       1.00
       H35          H  0.8305101  0.5166700  0.8938100    0.00000       Uiso       1.00
       H36          H  0.7939600  0.5955400  0.8900700    0.00000       Uiso       1.00
       C49          C  0.3505300  0.3958100  0.2875500    0.00000       Uiso       1.00
       C50          C  0.1467500  0.8664100  0.0351700    0.00000       Uiso       1.00
       C51          C  0.4359700  0.6097200  0.4369400    0.00000       Uiso       1.00
       C52          C  0.4449600  0.6208000  0.3749400    0.00000       Uiso       1.00
       C53          C  0.4216000  0.6195400  0.3250500    0.00000       Uiso       1.00
       C54          C  0.3773800  0.6158500  0.2302800    0.00000       Uiso       1.00
        N3          N  0.3317700  0.6476900  0.1780800    0.00000       Uiso       1.00
       C55          C  0.3080300  0.6457900  0.1322800    0.00000       Uiso       1.00
       C56          C  0.2609700  0.6453300  0.0419700    0.00000       Uiso       1.00
       C57          C  0.5942100  0.5906600  0.4561900    0.00000       Uiso       1.00
       H37          H  0.6131200  0.5765300  0.5468600    0.00000       Uiso       1.00
       C58          C  0.9754100  0.0235900  0.0298600    0.00000       Uiso       1.00
       C59          C  0.9850501  0.9656300  0.0450800    0.00000       Uiso       1.00
       C60          C  0.9211800  0.9967201  0.0245300    0.00000       Uiso       1.00
       C61          C  0.8764800  0.9114300  0.0304300    0.00000       Uiso       1.00
        N4          N  0.8482200  0.8316600  0.9890600    0.00000       Uiso       1.00
       C62          C  0.8266901  0.7858300  0.9899001    0.00000       Uiso       1.00
       C63          C  0.7835600  0.6963601  0.9876400    0.00000       Uiso       1.00
       C64          C  0.0549700  0.0410400  0.0223800    0.00000       Uiso       1.00
       H38          H  0.9707600  0.9293000  0.0549200    0.00000       Uiso       1.00
       H39          H  0.3507100  0.4318700  0.3190900    0.00000       Uiso       1.00
       H40          H  0.1600700  0.8638601  0.0775600    0.00000       Uiso       1.00
       C65          C  0.7617500  0.6449100  0.9869400    0.00000       Uiso       1.00
       C66          C  0.9533200  0.1446000  0.0244100    0.00000       Uiso       1.00
       H41          H  0.9748900  0.1445700  0.0434600    0.00000       Uiso       1.00
        N5          N  0.4532600  0.6192500  0.4879200    0.00000       Uiso       1.00
       C67          C  0.4752700  0.6246700  0.6190800    0.00000       Uiso       1.00
       C68          C  0.4843800  0.6427700  0.6777200    0.00000       Uiso       1.00
       C69          C  0.4753000  0.6323500  0.3579700    0.00000       Uiso       1.00
       C70          C  0.4844000  0.6544400  0.3009900    0.00000       Uiso       1.00
       H42          H  0.4699700  0.6685800  0.2631900    0.00000       Uiso       1.00
       H43          H  0.4699600  0.6545200  0.7165000    0.00000       Uiso       1.00
       C71          C  0.0639500  0.8089700  0.5137400    0.00000       Uiso       1.00
       C72          C  0.0927700  0.8260800  0.4960500    0.00000       Uiso       1.00
       C73          C  0.0639500  0.9017900  0.5135000    0.00000       Uiso       1.00
       C74          C  0.0927700  0.8846601  0.4959700    0.00000       Uiso       1.00
       H44          H  0.1118400  0.7990300  0.4847700    0.00000       Uiso       1.00
       H45          H  0.1118400  0.9117200  0.4846400    0.00000       Uiso       1.00
       C75          C  0.5781900  0.4278600  0.1965700    0.00000       Uiso       1.00
       C76          C  0.6011300  0.4304400  0.2415400    0.00000       Uiso       1.00
       C77          C  0.7074400  0.4080200  0.3579100    0.00000       Uiso       1.00
       C78          C  0.7301601  0.4074600  0.4034500    0.00000       Uiso       1.00
       C79          C  0.9189400  0.3338100  0.9785801    0.00000       Uiso       1.00
       C80          C  0.8963600  0.3755600  0.9813600    0.00000       Uiso       1.00
       C81          C  0.8195200  0.5305900  0.9363101    0.00000       Uiso       1.00
       C82          C  0.7984800  0.5751000  0.9344000    0.00000       Uiso       1.00
       H46          H  0.3964600  0.3137900  0.1134400    0.00000       Uiso       1.00
       H47          H  0.3559900  0.3184000  0.1926200    0.00000       Uiso       1.00
       H48          H  0.3063900  0.2662800  0.3483200    0.00000       Uiso       1.00
       H49          H  0.2677000  0.2646000  0.4305600    0.00000       Uiso       1.00
       H50          H  0.0982100  0.2613900  0.1118000    0.00000       Uiso       1.00
       H51          H  0.1379200  0.3347000  0.1168500    0.00000       Uiso       1.00
       H52          H  0.1802600  0.5068200  0.0928600    0.00000       Uiso       1.00
       H53          H  0.2165200  0.5842200  0.0901400    0.00000       Uiso       1.00
       C83          C  0.6027700  0.6534900  0.6490600    0.00000       Uiso       1.00
       C84          C  0.6257100  0.6509000  0.6940600    0.00000       Uiso       1.00
       C85          C  0.7041301  0.6943600  0.8630500    0.00000       Uiso       1.00
       C86          C  0.7265100  0.6950700  0.9092800    0.00000       Uiso       1.00
       C87          C  0.9182101  0.0426600  0.4757500    0.00000       Uiso       1.00
       C88          C  0.8959600  0.0850100  0.4786000    0.00000       Uiso       1.00
       C89          C  0.8153600  0.2342900  0.4332100    0.00000       Uiso       1.00
       C90          C  0.7942900  0.2787900  0.4317900    0.00000       Uiso       1.00
       H54          H  0.4401100  0.5414100  0.6978300    0.00000       Uiso       1.00
       H55          H  0.3998500  0.5371000  0.7773601    0.00000       Uiso       1.00
       H56          H  0.2997700  0.5517200  0.8385100    0.00000       Uiso       1.00
       H57          H  0.2611800  0.5521200  0.9197301    0.00000       Uiso       1.00
       H58          H  0.0962200  0.9762300  0.6139800    0.00000       Uiso       1.00
       H59          H  0.1352600  0.0508500  0.6193801    0.00000       Uiso       1.00
       H60          H  0.1722500  0.2289400  0.5896700    0.00000       Uiso       1.00
       H61          H  0.2086300  0.3068700  0.5876500    0.00000       Uiso       1.00
       C91          C  0.6458200  0.6118500  0.1808600    0.00000       Uiso       1.00
       C92          C  0.8517800  0.5796200  0.5356000    0.00000       Uiso       1.00
       C93          C  0.5640500  0.3927600  0.0382200    0.00000       Uiso       1.00
       C94          C  0.5551500  0.3847000  0.1008500    0.00000       Uiso       1.00
       C95          C  0.5789900  0.3861900  0.1497400    0.00000       Uiso       1.00
       C96          C  0.6251800  0.3914200  0.2403900    0.00000       Uiso       1.00
        N6          N  0.6697700  0.3560500  0.2934000    0.00000       Uiso       1.00
       C97          C  0.6939901  0.3570300  0.3381000    0.00000       Uiso       1.00
       C98          C  0.7405701  0.3557300  0.4294300    0.00000       Uiso       1.00
       C99          C  0.4057600  0.4107500  0.0177900    0.00000       Uiso       1.00
       H62          H  0.3869300  0.4207400  0.9264100    0.00000       Uiso       1.00
      C100          C  0.0246100  0.7344400  0.5308300    0.00000       Uiso       1.00
      C101          C  0.0149500  0.6767400  0.5471400    0.00000       Uiso       1.00
      C102          C  0.0789300  0.7075600  0.5255700    0.00000       Uiso       1.00
      C103          C  0.1243800  0.6235800  0.5312000    0.00000       Uiso       1.00
        N7          N  0.1514700  0.5413600  0.4922300    0.00000       Uiso       1.00
      C104          C  0.1733700  0.4961000  0.4926700    0.00000       Uiso       1.00
      C105          C  0.2165600  0.4066800  0.4890400    0.00000       Uiso       1.00
      C106          C  0.9450001  0.7518100  0.5231000    0.00000       Uiso       1.00
       H63          H  0.0292400  0.6405900  0.5578100    0.00000       Uiso       1.00
       H64          H  0.6432700  0.5790400  0.1457200    0.00000       Uiso       1.00
       H65          H  0.8366600  0.5807900  0.5753600    0.00000       Uiso       1.00
      C107          C  0.6032200  0.3431100  0.8266200    0.00000       Uiso       1.00
      C108          C  0.6252500  0.3450500  0.7796400    0.00000       Uiso       1.00
      C109          C  0.7062001  0.3035700  0.6150400    0.00000       Uiso       1.00
      C110          C  0.7288900  0.3033700  0.5693800    0.00000       Uiso       1.00
      C111          C  0.9016300  0.9935800  0.0759900    0.00000       Uiso       1.00
      C112          C  0.8794901  0.9511300  0.0790100    0.00000       Uiso       1.00
      C113          C  0.8178801  0.7588600  0.0454900    0.00000       Uiso       1.00
      C114          C  0.7970000  0.7141500  0.0442000    0.00000       Uiso       1.00
       H66          H  0.4434200  0.4480700  0.7734900    0.00000       Uiso       1.00
       H67          H  0.4050300  0.4506900  0.6903100    0.00000       Uiso       1.00
       H68          H  0.3089300  0.4453800  0.6178200    0.00000       Uiso       1.00
       H69          H  0.2700600  0.4454000  0.5372600    0.00000       Uiso       1.00
       H70          H  0.0668000  0.9594401  0.9357300    0.00000       Uiso       1.00
       H71          H  0.1059800  0.8846900  0.9407100    0.00000       Uiso       1.00
       H72          H  0.1769900  0.7848201  0.8900400    0.00000       Uiso       1.00
       H73          H  0.2132800  0.7058800  0.8867900    0.00000       Uiso       1.00
      C115          C  0.5756701  0.5809000  0.2754500    0.00000       Uiso       1.00
      C116          C  0.5975400  0.5792800  0.2283300    0.00000       Uiso       1.00
      C117          C  0.7012900  0.5946100  0.1045300    0.00000       Uiso       1.00
      C118          C  0.7240900  0.5945600  0.0593000    0.00000       Uiso       1.00
      C119          C  0.9003400  0.7068900  0.5751900    0.00000       Uiso       1.00
      C120          C  0.8778000  0.6651800  0.5780100    0.00000       Uiso       1.00
      C121          C  0.8133200  0.4759800  0.5480100    0.00000       Uiso       1.00
      C122          C  0.7923301  0.4314500  0.5462800    0.00000       Uiso       1.00
       H74          H  0.3945400  0.6873900  0.3642800    0.00000       Uiso       1.00
       H75          H  0.3556000  0.6837400  0.2817400    0.00000       Uiso       1.00
       H76          H  0.3011700  0.7360600  0.1357900    0.00000       Uiso       1.00
       H77          H  0.2620900  0.7372500  0.0546000    0.00000       Uiso       1.00
       H78          H  0.0652200  0.6664000  0.4399000    0.00000       Uiso       1.00
       H79          H  0.1049300  0.5926900  0.4448100    0.00000       Uiso       1.00
       H80          H  0.1694900  0.4833300  0.3938100    0.00000       Uiso       1.00
       H81          H  0.2060400  0.4044600  0.3900700    0.00000       Uiso       1.00
      C123          C  0.6494700  0.6041901  0.7875500    0.00000       Uiso       1.00
      C124          C  0.8532501  0.1335900  0.5351700    0.00000       Uiso       1.00
      C125          C  0.5640301  0.3902800  0.9369400    0.00000       Uiso       1.00
      C126          C  0.5550400  0.3792000  0.8749400    0.00000       Uiso       1.00
      C127          C  0.5784000  0.3804600  0.8250500    0.00000       Uiso       1.00
      C128          C  0.6226200  0.3841500  0.7302800    0.00000       Uiso       1.00
        N8          N  0.6682300  0.3523100  0.6780800    0.00000       Uiso       1.00
      C129          C  0.6919701  0.3542100  0.6322800    0.00000       Uiso       1.00
      C130          C  0.7390300  0.3546700  0.5419700    0.00000       Uiso       1.00
      C131          C  0.4057900  0.4093400  0.9561900    0.00000       Uiso       1.00
       H82          H  0.3868800  0.4234700  0.0468600    0.00000       Uiso       1.00
      C132          C  0.0245900  0.9764100  0.5298600    0.00000       Uiso       1.00
      C133          C  0.0149500  0.0343700  0.5450800    0.00000       Uiso       1.00
      C134          C  0.0788200  0.0032800  0.5245301    0.00000       Uiso       1.00
      C135          C  0.1235200  0.0885700  0.5304300    0.00000       Uiso       1.00
        N9          N  0.1517800  0.1683400  0.4890600    0.00000       Uiso       1.00
      C136          C  0.1733100  0.2141700  0.4899000    0.00000       Uiso       1.00
      C137          C  0.2164400  0.3036400  0.4876400    0.00000       Uiso       1.00
      C138          C  0.9450300  0.9589601  0.5223800    0.00000       Uiso       1.00
       H83          H  0.0292400  0.0707000  0.5549200    0.00000       Uiso       1.00
       H84          H  0.6492900  0.5681300  0.8190900    0.00000       Uiso       1.00
       H85          H  0.8399300  0.1361400  0.5775600    0.00000       Uiso       1.00
      C139          C  0.2382500  0.3550900  0.4869400    0.00000       Uiso       1.00
      C140          C  0.0466800  0.8554000  0.5244100    0.00000       Uiso       1.00
       H86          H  0.0251100  0.8554300  0.5434600    0.00000       Uiso       1.00
       N10          N  0.5467400  0.3807500  0.9879200    0.00000       Uiso       1.00
      C141          C  0.5247300  0.3753300  0.1190800    0.00000       Uiso       1.00
      C142          C  0.5156200  0.3572300  0.1777200    0.00000       Uiso       1.00
      C143          C  0.5247000  0.3676500  0.8579700    0.00000       Uiso       1.00
      C144          C  0.5156000  0.3455600  0.8009900    0.00000       Uiso       1.00
       H87          H  0.5300300  0.3314200  0.7631900    0.00000       Uiso       1.00
       H88          H  0.5300400  0.3454800  0.2165000    0.00000       Uiso       1.00
      C145          C  0.9360500  0.1910300  0.0137400    0.00000       Uiso       1.00
      C146          C  0.9072300  0.1739200  0.9960501    0.00000       Uiso       1.00
      C147          C  0.9360500  0.0982100  0.0135000    0.00000       Uiso       1.00
      C148          C  0.9072300  0.1153400  0.9959700    0.00000       Uiso       1.00
       H89          H  0.8881600  0.2009700  0.9847700    0.00000       Uiso       1.00
       H90          H  0.8881600  0.0882800  0.9846400    0.00000       Uiso       1.00
      C149          C  0.4218100  0.4278600  0.1965700    0.00000       Uiso       1.00
      C150          C  0.3988700  0.4304400  0.2415400    0.00000       Uiso       1.00
      C151          C  0.2925600  0.4080200  0.3579100    0.00000       Uiso       1.00
      C152          C  0.2698400  0.4074600  0.4034500    0.00000       Uiso       1.00
      C153          C  0.0810600  0.3338100  0.9785801    0.00000       Uiso       1.00
      C154          C  0.1036400  0.3755600  0.9813600    0.00000       Uiso       1.00
      C155          C  0.1804800  0.5305900  0.9363101    0.00000       Uiso       1.00
      C156          C  0.2015200  0.5751000  0.9344000    0.00000       Uiso       1.00
       H91          H  0.6035400  0.3137900  0.1134400    0.00000       Uiso       1.00
       H92          H  0.6440100  0.3184000  0.1926200    0.00000       Uiso       1.00
       H93          H  0.6936100  0.2662800  0.3483200    0.00000       Uiso       1.00
       H94          H  0.7323000  0.2646000  0.4305600    0.00000       Uiso       1.00
       H95          H  0.9017900  0.2613900  0.1118000    0.00000       Uiso       1.00
       H96          H  0.8620800  0.3347000  0.1168500    0.00000       Uiso       1.00
       H97          H  0.8197400  0.5068200  0.0928600    0.00000       Uiso       1.00
       H98          H  0.7834800  0.5842200  0.0901400    0.00000       Uiso       1.00
      C157          C  0.3972300  0.6534900  0.6490600    0.00000       Uiso       1.00
      C158          C  0.3742900  0.6509000  0.6940600    0.00000       Uiso       1.00
      C159          C  0.2958700  0.6943600  0.8630500    0.00000       Uiso       1.00
      C160          C  0.2734900  0.6950700  0.9092800    0.00000       Uiso       1.00
      C161          C  0.0817900  0.0426600  0.4757500    0.00000       Uiso       1.00
      C162          C  0.1040400  0.0850100  0.4786000    0.00000       Uiso       1.00
      C163          C  0.1846400  0.2342900  0.4332100    0.00000       Uiso       1.00
      C164          C  0.2057100  0.2787900  0.4317900    0.00000       Uiso       1.00
       H99          H  0.5598900  0.5414100  0.6978300    0.00000       Uiso       1.00
      H100          H  0.6001500  0.5371000  0.7773601    0.00000       Uiso       1.00
      H101          H  0.7002301  0.5517200  0.8385100    0.00000       Uiso       1.00
      H102          H  0.7388200  0.5521200  0.9197301    0.00000       Uiso       1.00
      H103          H  0.9037800  0.9762300  0.6139800    0.00000       Uiso       1.00
      H104          H  0.8647400  0.0508500  0.6193801    0.00000       Uiso       1.00
      H105          H  0.8277500  0.2289400  0.5896700    0.00000       Uiso       1.00
      H106          H  0.7913700  0.3068700  0.5876500    0.00000       Uiso       1.00
      C165          C  0.3541800  0.6118500  0.1808600    0.00000       Uiso       1.00
      C166          C  0.1482200  0.5796200  0.5356000    0.00000       Uiso       1.00
      C167          C  0.4359500  0.3927600  0.0382200    0.00000       Uiso       1.00
      C168          C  0.4448500  0.3847000  0.1008500    0.00000       Uiso       1.00
      C169          C  0.4210100  0.3861900  0.1497400    0.00000       Uiso       1.00
      C170          C  0.3748200  0.3914200  0.2403900    0.00000       Uiso       1.00
       N11          N  0.3302300  0.3560500  0.2934000    0.00000       Uiso       1.00
      C171          C  0.3060100  0.3570300  0.3381000    0.00000       Uiso       1.00
      C172          C  0.2594300  0.3557300  0.4294300    0.00000       Uiso       1.00
      C173          C  0.5942400  0.4107500  0.0177900    0.00000       Uiso       1.00
      H107          H  0.6130700  0.4207400  0.9264100    0.00000       Uiso       1.00
      C174          C  0.9753900  0.7344400  0.5308300    0.00000       Uiso       1.00
      C175          C  0.9850501  0.6767400  0.5471400    0.00000       Uiso       1.00
      C176          C  0.9210700  0.7075600  0.5255700    0.00000       Uiso       1.00
      C177          C  0.8756201  0.6235800  0.5312000    0.00000       Uiso       1.00
       N12          N  0.8485300  0.5413600  0.4922300    0.00000       Uiso       1.00
      C178          C  0.8266301  0.4961000  0.4926700    0.00000       Uiso       1.00
      C179          C  0.7834401  0.4066800  0.4890400    0.00000       Uiso       1.00
      C180          C  0.0550000  0.7518100  0.5231000    0.00000       Uiso       1.00
      H108          H  0.9707600  0.6405900  0.5578100    0.00000       Uiso       1.00
      H109          H  0.3567300  0.5790400  0.1457200    0.00000       Uiso       1.00
      H110          H  0.1633400  0.5807900  0.5753600    0.00000       Uiso       1.00
      C181          C  0.3967800  0.3431100  0.8266200    0.00000       Uiso       1.00
      C182          C  0.3747500  0.3450500  0.7796400    0.00000       Uiso       1.00
      C183          C  0.2938000  0.3035700  0.6150400    0.00000       Uiso       1.00
      C184          C  0.2711100  0.3033700  0.5693800    0.00000       Uiso       1.00
      C185          C  0.0983700  0.9935800  0.0759900    0.00000       Uiso       1.00
      C186          C  0.1205100  0.9511300  0.0790100    0.00000       Uiso       1.00
      C187          C  0.1821200  0.7588600  0.0454900    0.00000       Uiso       1.00
      C188          C  0.2030000  0.7141500  0.0442000    0.00000       Uiso       1.00
      H111          H  0.5565800  0.4480700  0.7734900    0.00000       Uiso       1.00
      H112          H  0.5949700  0.4506900  0.6903100    0.00000       Uiso       1.00
      H113          H  0.6910700  0.4453800  0.6178200    0.00000       Uiso       1.00
      H114          H  0.7299401  0.4454000  0.5372600    0.00000       Uiso       1.00
      H115          H  0.9332001  0.9594401  0.9357300    0.00000       Uiso       1.00
      H116          H  0.8940200  0.8846900  0.9407100    0.00000       Uiso       1.00
      H117          H  0.8230101  0.7848201  0.8900400    0.00000       Uiso       1.00
      H118          H  0.7867200  0.7058800  0.8867900    0.00000       Uiso       1.00
      C189          C  0.4243300  0.5809000  0.2754500    0.00000       Uiso       1.00
      C190          C  0.4024600  0.5792800  0.2283300    0.00000       Uiso       1.00
      C191          C  0.2987100  0.5946100  0.1045300    0.00000       Uiso       1.00
      C192          C  0.2759100  0.5945600  0.0593000    0.00000       Uiso       1.00
      C193          C  0.0996600  0.7068900  0.5751900    0.00000       Uiso       1.00
      C194          C  0.1222000  0.6651800  0.5780100    0.00000       Uiso       1.00
      C195          C  0.1866800  0.4759800  0.5480100    0.00000       Uiso       1.00
      C196          C  0.2076700  0.4314500  0.5462800    0.00000       Uiso       1.00
      H119          H  0.6054600  0.6873900  0.3642800    0.00000       Uiso       1.00
      H120          H  0.6444000  0.6837400  0.2817400    0.00000       Uiso       1.00
      H121          H  0.6988301  0.7360600  0.1357900    0.00000       Uiso       1.00
      H122          H  0.7379100  0.7372500  0.0546000    0.00000       Uiso       1.00
      H123          H  0.9347801  0.6664000  0.4399000    0.00000       Uiso       1.00
      H124          H  0.8950700  0.5926900  0.4448100    0.00000       Uiso       1.00
      H125          H  0.8305101  0.4833300  0.3938100    0.00000       Uiso       1.00
      H126          H  0.7939600  0.4044600  0.3900700    0.00000       Uiso       1.00
      C197          C  0.3505300  0.6041901  0.7875500    0.00000       Uiso       1.00
      C198          C  0.1467500  0.1335900  0.5351700    0.00000       Uiso       1.00
      C199          C  0.4359700  0.3902800  0.9369400    0.00000       Uiso       1.00
      C200          C  0.4449600  0.3792000  0.8749400    0.00000       Uiso       1.00
      C201          C  0.4216000  0.3804600  0.8250500    0.00000       Uiso       1.00
      C202          C  0.3773800  0.3841500  0.7302800    0.00000       Uiso       1.00
       N13          N  0.3317700  0.3523100  0.6780800    0.00000       Uiso       1.00
      C203          C  0.3080300  0.3542100  0.6322800    0.00000       Uiso       1.00
      C204          C  0.2609700  0.3546700  0.5419700    0.00000       Uiso       1.00
      C205          C  0.5942100  0.4093400  0.9561900    0.00000       Uiso       1.00
      H127          H  0.6131200  0.4234700  0.0468600    0.00000       Uiso       1.00
      C206          C  0.9754100  0.9764100  0.5298600    0.00000       Uiso       1.00
      C207          C  0.9850501  0.0343700  0.5450800    0.00000       Uiso       1.00
      C208          C  0.9211800  0.0032800  0.5245301    0.00000       Uiso       1.00
      C209          C  0.8764800  0.0885700  0.5304300    0.00000       Uiso       1.00
       N14          N  0.8482200  0.1683400  0.4890600    0.00000       Uiso       1.00
      C210          C  0.8266901  0.2141700  0.4899000    0.00000       Uiso       1.00
      C211          C  0.7835600  0.3036400  0.4876400    0.00000       Uiso       1.00
      C212          C  0.0549700  0.9589601  0.5223800    0.00000       Uiso       1.00
      H128          H  0.9707600  0.0707000  0.5549200    0.00000       Uiso       1.00
      H129          H  0.3507100  0.5681300  0.8190900    0.00000       Uiso       1.00
      H130          H  0.1600700  0.1361400  0.5775600    0.00000       Uiso       1.00
      C213          C  0.7617500  0.3550900  0.4869400    0.00000       Uiso       1.00
      C214          C  0.9533200  0.8554000  0.5244100    0.00000       Uiso       1.00
      H131          H  0.9748900  0.8554300  0.5434600    0.00000       Uiso       1.00
       N15          N  0.4532600  0.3807500  0.9879200    0.00000       Uiso       1.00
      C215          C  0.4752700  0.3753300  0.1190800    0.00000       Uiso       1.00
      C216          C  0.4843800  0.3572300  0.1777200    0.00000       Uiso       1.00
      C217          C  0.4753000  0.3676500  0.8579700    0.00000       Uiso       1.00
      C218          C  0.4844000  0.3455600  0.8009900    0.00000       Uiso       1.00
      H132          H  0.4699700  0.3314200  0.7631900    0.00000       Uiso       1.00
      H133          H  0.4699600  0.3454800  0.2165000    0.00000       Uiso       1.00
      C219          C  0.0639500  0.1910300  0.0137400    0.00000       Uiso       1.00
      C220          C  0.0927700  0.1739200  0.9960501    0.00000       Uiso       1.00
      C221          C  0.0639500  0.0982100  0.0135000    0.00000       Uiso       1.00
      C222          C  0.0927700  0.1153400  0.9959700    0.00000       Uiso       1.00
      H134          H  0.1118400  0.2009700  0.9847700    0.00000       Uiso       1.00
      H135          H  0.1118400  0.0882800  0.9846400    0.00000       Uiso       1.00
      C223          C  0.5781900  0.5721400  0.6965700    0.00000       Uiso       1.00
      C224          C  0.6011300  0.5695600  0.7415400    0.00000       Uiso       1.00
      C225          C  0.7074400  0.5919800  0.8579100    0.00000       Uiso       1.00
      C226          C  0.7301601  0.5925400  0.9034501    0.00000       Uiso       1.00
      C227          C  0.9189400  0.6661900  0.4785800    0.00000       Uiso       1.00
      C228          C  0.8963600  0.6244400  0.4813600    0.00000       Uiso       1.00
      C229          C  0.8195200  0.4694100  0.4363100    0.00000       Uiso       1.00
      C230          C  0.7984800  0.4249000  0.4344000    0.00000       Uiso       1.00
      H136          H  0.3964600  0.6862100  0.6134400    0.00000       Uiso       1.00
      H137          H  0.3559900  0.6816000  0.6926200    0.00000       Uiso       1.00
      H138          H  0.3063900  0.7337200  0.8483200    0.00000       Uiso       1.00
      H139          H  0.2677000  0.7354000  0.9305600    0.00000       Uiso       1.00
      H140          H  0.0982100  0.7386100  0.6118000    0.00000       Uiso       1.00
      H141          H  0.1379200  0.6653000  0.6168500    0.00000       Uiso       1.00
      H142          H  0.1802600  0.4931800  0.5928600    0.00000       Uiso       1.00
      H143          H  0.2165200  0.4157800  0.5901400    0.00000       Uiso       1.00
      C231          C  0.6027700  0.3465100  0.1490600    0.00000       Uiso       1.00
      C232          C  0.6257100  0.3491000  0.1940600    0.00000       Uiso       1.00
      C233          C  0.7041301  0.3056400  0.3630500    0.00000       Uiso       1.00
      C234          C  0.7265100  0.3049300  0.4092800    0.00000       Uiso       1.00
      C235          C  0.9182101  0.9573401  0.9757500    0.00000       Uiso       1.00
      C236          C  0.8959600  0.9149900  0.9786000    0.00000       Uiso       1.00
      C237          C  0.8153600  0.7657101  0.9332100    0.00000       Uiso       1.00
      C238          C  0.7942900  0.7212101  0.9317900    0.00000       Uiso       1.00
      H144          H  0.4401100  0.4585900  0.1978300    0.00000       Uiso       1.00
      H145          H  0.3998500  0.4629000  0.2773600    0.00000       Uiso       1.00
      H146          H  0.2997700  0.4482800  0.3385100    0.00000       Uiso       1.00
      H147          H  0.2611800  0.4478800  0.4197300    0.00000       Uiso       1.00
      H148          H  0.0962200  0.0237700  0.1139800    0.00000       Uiso       1.00
      H149          H  0.1352600  0.9491500  0.1193800    0.00000       Uiso       1.00
      H150          H  0.1722500  0.7710600  0.0896700    0.00000       Uiso       1.00
      H151          H  0.2086300  0.6931300  0.0876500    0.00000       Uiso       1.00
      C239          C  0.6458200  0.3881500  0.6808600    0.00000       Uiso       1.00
      C240          C  0.8517800  0.4203800  0.0356000    0.00000       Uiso       1.00
      C241          C  0.5640500  0.6072400  0.5382200    0.00000       Uiso       1.00
      C242          C  0.5551500  0.6153000  0.6008500    0.00000       Uiso       1.00
      C243          C  0.5789900  0.6138100  0.6497400    0.00000       Uiso       1.00
      C244          C  0.6251800  0.6085800  0.7403900    0.00000       Uiso       1.00
       N16          N  0.6697700  0.6439500  0.7934000    0.00000       Uiso       1.00
      C245          C  0.6939901  0.6429700  0.8381001    0.00000       Uiso       1.00
      C246          C  0.7405701  0.6442700  0.9294300    0.00000       Uiso       1.00
      C247          C  0.4057600  0.5892500  0.5177900    0.00000       Uiso       1.00
      H152          H  0.3869300  0.5792600  0.4264100    0.00000       Uiso       1.00
      C248          C  0.0246100  0.2655600  0.0308300    0.00000       Uiso       1.00
      C249          C  0.0149500  0.3232600  0.0471400    0.00000       Uiso       1.00
      C250          C  0.0789300  0.2924400  0.0255700    0.00000       Uiso       1.00
      C251          C  0.1243800  0.3764200  0.0312000    0.00000       Uiso       1.00
       N17          N  0.1514700  0.4586400  0.9922301    0.00000       Uiso       1.00
      C252          C  0.1733700  0.5039001  0.9926701    0.00000       Uiso       1.00
      C253          C  0.2165600  0.5933200  0.9890401    0.00000       Uiso       1.00
      C254          C  0.9450001  0.2481900  0.0231000    0.00000       Uiso       1.00
      H153          H  0.0292400  0.3594100  0.0578100    0.00000       Uiso       1.00
      H154          H  0.6432700  0.4209600  0.6457200    0.00000       Uiso       1.00
      H155          H  0.8366600  0.4192100  0.0753600    0.00000       Uiso       1.00
      C255          C  0.6032200  0.6568900  0.3266200    0.00000       Uiso       1.00
      C256          C  0.6252500  0.6549500  0.2796400    0.00000       Uiso       1.00
      C257          C  0.7062001  0.6964300  0.1150400    0.00000       Uiso       1.00
      C258          C  0.7288900  0.6966300  0.0693800    0.00000       Uiso       1.00
      C259          C  0.9016300  0.0064200  0.5759900    0.00000       Uiso       1.00
      C260          C  0.8794901  0.0488700  0.5790100    0.00000       Uiso       1.00
      C261          C  0.8178801  0.2411400  0.5454900    0.00000       Uiso       1.00
      C262          C  0.7970000  0.2858500  0.5442000    0.00000       Uiso       1.00
      H156          H  0.4434200  0.5519300  0.2734900    0.00000       Uiso       1.00
      H157          H  0.4050300  0.5493100  0.1903100    0.00000       Uiso       1.00
      H158          H  0.3089300  0.5546200  0.1178200    0.00000       Uiso       1.00
      H159          H  0.2700600  0.5546000  0.0372600    0.00000       Uiso       1.00
      H160          H  0.0668000  0.0405600  0.4357300    0.00000       Uiso       1.00
      H161          H  0.1059800  0.1153100  0.4407100    0.00000       Uiso       1.00
      H162          H  0.1769900  0.2151800  0.3900400    0.00000       Uiso       1.00
      H163          H  0.2132800  0.2941200  0.3867900    0.00000       Uiso       1.00
      C263          C  0.5756701  0.4191000  0.7754501    0.00000       Uiso       1.00
      C264          C  0.5975400  0.4207200  0.7283300    0.00000       Uiso       1.00
      C265          C  0.7012900  0.4053900  0.6045300    0.00000       Uiso       1.00
      C266          C  0.7240900  0.4054400  0.5593000    0.00000       Uiso       1.00
      C267          C  0.9003400  0.2931100  0.0751900    0.00000       Uiso       1.00
      C268          C  0.8778000  0.3348200  0.0780100    0.00000       Uiso       1.00
      C269          C  0.8133200  0.5240200  0.0480100    0.00000       Uiso       1.00
      C270          C  0.7923301  0.5685500  0.0462800    0.00000       Uiso       1.00
      H164          H  0.3945400  0.3126100  0.8642800    0.00000       Uiso       1.00
      H165          H  0.3556000  0.3162600  0.7817400    0.00000       Uiso       1.00
      H166          H  0.3011700  0.2639400  0.6357900    0.00000       Uiso       1.00
      H167          H  0.2620900  0.2627500  0.5546001    0.00000       Uiso       1.00
      H168          H  0.0652200  0.3336000  0.9399000    0.00000       Uiso       1.00
      H169          H  0.1049300  0.4073100  0.9448100    0.00000       Uiso       1.00
      H170          H  0.1694900  0.5166700  0.8938100    0.00000       Uiso       1.00
      H171          H  0.2060400  0.5955400  0.8900700    0.00000       Uiso       1.00
      C271          C  0.6494700  0.3958100  0.2875500    0.00000       Uiso       1.00
      C272          C  0.8532501  0.8664100  0.0351700    0.00000       Uiso       1.00
      C273          C  0.5640301  0.6097200  0.4369400    0.00000       Uiso       1.00
      C274          C  0.5550400  0.6208000  0.3749400    0.00000       Uiso       1.00
      C275          C  0.5784000  0.6195400  0.3250500    0.00000       Uiso       1.00
      C276          C  0.6226200  0.6158500  0.2302800    0.00000       Uiso       1.00
       N18          N  0.6682300  0.6476900  0.1780800    0.00000       Uiso       1.00
      C277          C  0.6919701  0.6457900  0.1322800    0.00000       Uiso       1.00
      C278          C  0.7390300  0.6453300  0.0419700    0.00000       Uiso       1.00
      C279          C  0.4057900  0.5906600  0.4561900    0.00000       Uiso       1.00
      H172          H  0.3868800  0.5765300  0.5468600    0.00000       Uiso       1.00
      C280          C  0.0245900  0.0235900  0.0298600    0.00000       Uiso       1.00
      C281          C  0.0149500  0.9656300  0.0450800    0.00000       Uiso       1.00
      C282          C  0.0788200  0.9967201  0.0245300    0.00000       Uiso       1.00
      C283          C  0.1235200  0.9114300  0.0304300    0.00000       Uiso       1.00
       N19          N  0.1517800  0.8316600  0.9890600    0.00000       Uiso       1.00
      C284          C  0.1733100  0.7858300  0.9899001    0.00000       Uiso       1.00
      C285          C  0.2164400  0.6963601  0.9876400    0.00000       Uiso       1.00
      C286          C  0.9450300  0.0410400  0.0223800    0.00000       Uiso       1.00
      H173          H  0.0292400  0.9293000  0.0549200    0.00000       Uiso       1.00
      H174          H  0.6492900  0.4318700  0.3190900    0.00000       Uiso       1.00
      H175          H  0.8399300  0.8638601  0.0775600    0.00000       Uiso       1.00
      C287          C  0.2382500  0.6449100  0.9869400    0.00000       Uiso       1.00
      C288          C  0.0466800  0.1446000  0.0244100    0.00000       Uiso       1.00
      H176          H  0.0251100  0.1445700  0.0434600    0.00000       Uiso       1.00
       N20          N  0.5467400  0.6192500  0.4879200    0.00000       Uiso       1.00
      C289          C  0.5247300  0.6246700  0.6190800    0.00000       Uiso       1.00
      C290          C  0.5156200  0.6427700  0.6777200    0.00000       Uiso       1.00
      C291          C  0.5247000  0.6323500  0.3579700    0.00000       Uiso       1.00
      C292          C  0.5156000  0.6544400  0.3009900    0.00000       Uiso       1.00
      H177          H  0.5300300  0.6685800  0.2631900    0.00000       Uiso       1.00
      H178          H  0.5300400  0.6545200  0.7165000    0.00000       Uiso       1.00
      C293          C  0.9360500  0.8089700  0.5137400    0.00000       Uiso       1.00
      C294          C  0.9072300  0.8260800  0.4960500    0.00000       Uiso       1.00
      C295          C  0.9360500  0.9017900  0.5135000    0.00000       Uiso       1.00
      C296          C  0.9072300  0.8846601  0.4959700    0.00000       Uiso       1.00
      H179          H  0.8881600  0.7990300  0.4847700    0.00000       Uiso       1.00
      H180          H  0.8881600  0.9117200  0.4846400    0.00000       Uiso       1.00
      C297          C  0.5000000  0.6191800  0.3922500    0.00000       Uiso       1.00
      H181          H  0.5000000  0.5972400  0.4343000    0.00000       Uiso       1.00
      C298          C  0.5000000  0.6136900  0.5839200    0.00000       Uiso       1.00
      H182          H  0.5000000  0.5951100  0.5399800    0.00000       Uiso       1.00
      C299          C  0.5000000  0.3808200  0.8922500    0.00000       Uiso       1.00
      H183          H  0.5000000  0.4027600  0.9343000    0.00000       Uiso       1.00
      C300          C  0.5000000  0.3863100  0.0839200    0.00000       Uiso       1.00
      H184          H  0.5000000  0.4048900  0.0399800    0.00000       Uiso       1.00
       N21          N  0.0000000  0.7675100  0.5211200    0.00000       Uiso       1.00
       N22          N  0.0000000  0.9432001  0.5207300    0.00000       Uiso       1.00
       N23          N  0.0000000  0.2324900  0.0211200    0.00000       Uiso       1.00
       N24          N  0.0000000  0.0568000  0.0207300    0.00000       Uiso       1.00
