data_COF-43-gra
_audit_creation_date              0000-00-00
_audit_creation_method            'LanYouShi'
_symmetry_space_group_name_H-M    'P1'
_cell_length_a                    45.3408012
_cell_length_b                    45.3408012
_cell_length_c                    6.4554000
_cell_angle_alpha                 90.0000000
_cell_angle_beta                  90.0000000
_cell_angle_gamma                 120.0000000
loop_
_atom_site_label
_atom_site_type_symbol
_atom_site_fract_x
_atom_site_fract_y
_atom_site_fract_z
_atom_site_U_iso_or_equiv
_atom_site_adp_type
_atom_site_occupancy
        H1          H  0.2470000  0.3290000  0.3968000    0.00000       Uiso       1.00
        H2          H  0.2365000  0.2703000  0.1056000    0.00000       Uiso       1.00
        H3          H  0.6633000  0.7492000  0.3968000    0.00000       Uiso       1.00
        H4          H  0.6048000  0.7010000  0.3946000    0.00000       Uiso       1.00
        H5          H  0.6709999  0.9179999  0.3968000    0.00000       Uiso       1.00
        H6          H  0.7297000  0.9661999  0.1056000    0.00000       Uiso       1.00
        H7          H  0.2508000  0.9141000  0.3968000    0.00000       Uiso       1.00
        H8          H  0.2990000  0.9038000  0.3946000    0.00000       Uiso       1.00
        H9          H  0.0820000  0.7530000  0.3968000    0.00000       Uiso       1.00
       H10          H  0.0338000  0.7635000  0.1056000    0.00000       Uiso       1.00
       H11          H  0.0859000  0.3367000  0.3968000    0.00000       Uiso       1.00
       H12          H  0.0962000  0.3952000  0.3946000    0.00000       Uiso       1.00
       H13          H  0.7530000  0.6710000  0.8968000    0.00000       Uiso       1.00
       H14          H  0.7635000  0.7297000  0.6056000    0.00000       Uiso       1.00
       H15          H  0.3367000  0.2508000  0.8968000    0.00000       Uiso       1.00
       H16          H  0.3952000  0.2990000  0.8946000    0.00000       Uiso       1.00
       H17          H  0.3290000  0.0820000  0.8968000    0.00000       Uiso       1.00
       H18          H  0.2703000  0.0338000  0.6056000    0.00000       Uiso       1.00
       H19          H  0.7491999  0.0859000  0.8968000    0.00000       Uiso       1.00
       H20          H  0.7010000  0.0962000  0.8946000    0.00000       Uiso       1.00
       H21          H  0.9180000  0.2470000  0.8968000    0.00000       Uiso       1.00
       H22          H  0.9662000  0.2365000  0.6056000    0.00000       Uiso       1.00
       H23          H  0.9141000  0.6633000  0.8968000    0.00000       Uiso       1.00
       H24          H  0.9038000  0.6048000  0.8946000    0.00000       Uiso       1.00
       H25          H  0.7530000  0.6710000  0.6032000    0.00000       Uiso       1.00
       H26          H  0.7635000  0.7297000  0.8944000    0.00000       Uiso       1.00
       H27          H  0.3367000  0.2508000  0.6032000    0.00000       Uiso       1.00
       H28          H  0.3952000  0.2990000  0.6054000    0.00000       Uiso       1.00
       H29          H  0.3290000  0.0820000  0.6032000    0.00000       Uiso       1.00
       H30          H  0.2703000  0.0338000  0.8944000    0.00000       Uiso       1.00
       H31          H  0.7491999  0.0859000  0.6032000    0.00000       Uiso       1.00
       H32          H  0.7010000  0.0962000  0.6054000    0.00000       Uiso       1.00
       H33          H  0.9180000  0.2470000  0.6032000    0.00000       Uiso       1.00
       H34          H  0.9662000  0.2365000  0.8944000    0.00000       Uiso       1.00
       H35          H  0.9141000  0.6633000  0.6032000    0.00000       Uiso       1.00
       H36          H  0.9038000  0.6048000  0.6054000    0.00000       Uiso       1.00
       H37          H  0.2470000  0.3290000  0.1032000    0.00000       Uiso       1.00
       H38          H  0.2365000  0.2703000  0.3944000    0.00000       Uiso       1.00
       H39          H  0.6633000  0.7492000  0.1032000    0.00000       Uiso       1.00
       H40          H  0.6048000  0.7010000  0.1054000    0.00000       Uiso       1.00
       H41          H  0.6709999  0.9179999  0.1032000    0.00000       Uiso       1.00
       H42          H  0.7297000  0.9661999  0.3944000    0.00000       Uiso       1.00
       H43          H  0.2508000  0.9141000  0.1032000    0.00000       Uiso       1.00
       H44          H  0.2990000  0.9038000  0.1054000    0.00000       Uiso       1.00
       H45          H  0.0820000  0.7530000  0.1032000    0.00000       Uiso       1.00
       H46          H  0.0338000  0.7635000  0.3944000    0.00000       Uiso       1.00
       H47          H  0.0859000  0.3367000  0.1032000    0.00000       Uiso       1.00
       H48          H  0.0962000  0.3952000  0.1054000    0.00000       Uiso       1.00
       H49          H  0.5971000  0.3604000  0.7500000    0.00000       Uiso       1.00
       H50          H  0.5382000  0.3408000  0.7500000    0.00000       Uiso       1.00
       H51          H  0.6470000  0.3749000  0.7500000    0.00000       Uiso       1.00
       H52          H  0.5163000  0.2381999  0.7500000    0.00000       Uiso       1.00
       H53          H  0.5749000  0.2563000  0.7500000    0.00000       Uiso       1.00
       H54          H  0.3028001  0.1981000  0.7500000    0.00000       Uiso       1.00
       H55          H  0.3629000  0.1346999  0.7500000    0.00000       Uiso       1.00
       H56          H  0.1497999  0.0949000  0.7500000    0.00000       Uiso       1.00
       H57          H  0.0915000  0.0773000  0.7500000    0.00000       Uiso       1.00
       H58          H  0.0189000  0.9588000  0.7500000    0.00000       Uiso       1.00
       H59          H  0.4787000  0.2956000  0.7500000    0.00000       Uiso       1.00
        O1          O  0.3696001  0.2377000  0.7500000    0.00000       Uiso       1.00
        O2          O  0.2961000  0.0951999  0.7500000    0.00000       Uiso       1.00
        O3          O  0.7624999  0.5818000  0.7500000    0.00000       Uiso       1.00
        O4          O  0.9046999  0.7524999  0.7500000    0.00000       Uiso       1.00
        N1          N  0.7810000  0.5357999  0.7500000    0.00000       Uiso       1.00
        N2          N  0.8041000  0.5705000  0.7500000    0.00000       Uiso       1.00
        N3          N  0.8630000  0.7638000  0.7500000    0.00000       Uiso       1.00
        N4          N  0.8862000  0.7984999  0.7500000    0.00000       Uiso       1.00
        C1          C  0.7904000  0.5134000  0.7500000    0.00000       Uiso       1.00
        C2          C  0.7929000  0.5932000  0.7500000    0.00000       Uiso       1.00
        C3          C  0.8152000  0.6311000  0.7500000    0.00000       Uiso       1.00
        C4          C  0.8508000  0.6485000  0.7500000    0.00000       Uiso       1.00
        C5          C  0.8683000  0.6840000  0.7500000    0.00000       Uiso       1.00
        C6          C  0.8519999  0.7032000  0.7500000    0.00000       Uiso       1.00
        C7          C  0.7989000  0.6503000  0.7500000    0.00000       Uiso       1.00
        C8          C  0.8164000  0.6858000  0.7500000    0.00000       Uiso       1.00
        C9          C  0.8743000  0.7411000  0.7500000    0.00000       Uiso       1.00
       C10          C  0.8769000  0.8209000  0.7500000    0.00000       Uiso       1.00
       C11          C  0.0727000  0.0228000  0.7500000    0.00000       Uiso       1.00
       C12          C  0.0848000  0.9997000  0.7500000    0.00000       Uiso       1.00
       C13          C  0.1191000  0.0107000  0.7500000    0.00000       Uiso       1.00
       C14          C  0.1429000  0.0449000  0.7500000    0.00000       Uiso       1.00
       C15          C  0.1317000  0.0682000  0.7500000    0.00000       Uiso       1.00
       C16          C  0.0974000  0.0575000  0.7500000    0.00000       Uiso       1.00
       C17          C  0.7350000  0.2692000  0.7500000    0.00000       Uiso       1.00
       C18          C  0.6894000  0.2825000  0.7500000    0.00000       Uiso       1.00
       C19          C  0.7119000  0.2347000  0.7500000    0.00000       Uiso       1.00
       C20          C  0.6776000  0.2240000  0.7500000    0.00000       Uiso       1.00
       C21          C  0.7240999  0.2927000  0.7500000    0.00000       Uiso       1.00
       C22          C  0.6665000  0.2474000  0.7500000    0.00000       Uiso       1.00
       H60          H  0.6396000  0.2367000  0.7500000    0.00000       Uiso       1.00
       H61          H  0.6592000  0.1974000  0.7500000    0.00000       Uiso       1.00
       H62          H  0.6251000  0.2721000  0.7500000    0.00000       Uiso       1.00
       H63          H  0.7618001  0.2781000  0.7500000    0.00000       Uiso       1.00
       H64          H  0.7437000  0.3186001  0.7500000    0.00000       Uiso       1.00
       H65          H  0.8019000  0.1047001  0.7500000    0.00000       Uiso       1.00
       H66          H  0.8653000  0.2282001  0.7500000    0.00000       Uiso       1.00
       H67          H  0.9051000  0.0548999  0.7500000    0.00000       Uiso       1.00
       H68          H  0.9227000  0.0142001  0.7500000    0.00000       Uiso       1.00
       H69          H  0.0412000  0.0601000  0.7500000    0.00000       Uiso       1.00
       H70          H  0.7043999  0.1831000  0.7500000    0.00000       Uiso       1.00
        O5          O  0.7623000  0.1319001  0.7500000    0.00000       Uiso       1.00
        O6          O  0.9048000  0.2009001  0.7500000    0.00000       Uiso       1.00
        O7          O  0.4182000  0.1807000  0.7500000    0.00000       Uiso       1.00
        O8          O  0.2475000  0.1522000  0.7500000    0.00000       Uiso       1.00
        N5          N  0.4642000  0.2452000  0.7500000    0.00000       Uiso       1.00
        N6          N  0.4295000  0.2336000  0.7500000    0.00000       Uiso       1.00
        N7          N  0.2362000  0.0992000  0.7500000    0.00000       Uiso       1.00
        N8          N  0.2015000  0.0877000  0.7500000    0.00000       Uiso       1.00
       C23          C  0.4866000  0.2770000  0.7500000    0.00000       Uiso       1.00
       C24          C  0.4068000  0.1997000  0.7500000    0.00000       Uiso       1.00
       C25          C  0.3689000  0.1841000  0.7500000    0.00000       Uiso       1.00
       C26          C  0.3515000  0.2023000  0.7500000    0.00000       Uiso       1.00
       C27          C  0.3160000  0.1843000  0.7500000    0.00000       Uiso       1.00
       C28          C  0.2968000  0.1488000  0.7500000    0.00000       Uiso       1.00
       C29          C  0.3497000  0.1486000  0.7500000    0.00000       Uiso       1.00
       C30          C  0.3142000  0.1306000  0.7500000    0.00000       Uiso       1.00
       C31          C  0.2589000  0.1332000  0.7500000    0.00000       Uiso       1.00
       C32          C  0.1791000  0.0560000  0.7500000    0.00000       Uiso       1.00
       C33          C  0.9772000  0.0499000  0.7500000    0.00000       Uiso       1.00
       C34          C  0.0003000  0.0851000  0.7500000    0.00000       Uiso       1.00
       C35          C  0.9893000  0.1084000  0.7500000    0.00000       Uiso       1.00
       C36          C  0.9550999  0.0980000  0.7500000    0.00000       Uiso       1.00
       C37          C  0.9317999  0.0635000  0.7500000    0.00000       Uiso       1.00
       C38          C  0.9425000  0.0399000  0.7500000    0.00000       Uiso       1.00
       C39          C  0.7308000  0.4658000  0.7500000    0.00000       Uiso       1.00
       C40          C  0.7175000  0.4069000  0.7500000    0.00000       Uiso       1.00
       C41          C  0.7653000  0.4772000  0.7500000    0.00000       Uiso       1.00
       C42          C  0.7760000  0.4536000  0.7500000    0.00000       Uiso       1.00
       C43          C  0.7073000  0.4314000  0.7500000    0.00000       Uiso       1.00
       C44          C  0.7526000  0.4191000  0.7500000    0.00000       Uiso       1.00
       H71          H  0.7632999  0.4029000  0.7500000    0.00000       Uiso       1.00
       H72          H  0.8026000  0.4617999  0.7500000    0.00000       Uiso       1.00
       H73          H  0.7279000  0.3530000  0.7500000    0.00000       Uiso       1.00
       H74          H  0.7219000  0.4837000  0.7500000    0.00000       Uiso       1.00
       H75          H  0.6813999  0.4251000  0.7500000    0.00000       Uiso       1.00
       H76          H  0.8952999  0.6971999  0.7500000    0.00000       Uiso       1.00
       H77          H  0.7717999  0.6371000  0.7500000    0.00000       Uiso       1.00
       H78          H  0.9451000  0.8502001  0.7500000    0.00000       Uiso       1.00
       H79          H  0.9857998  0.9084999  0.7500000    0.00000       Uiso       1.00
       H80          H  0.9399000  0.9811000  0.7500000    0.00000       Uiso       1.00
       H81          H  0.8169000  0.5213000  0.7500000    0.00000       Uiso       1.00
        O9          O  0.8680999  0.6303999  0.7500000    0.00000       Uiso       1.00
       O10          O  0.7990999  0.7039000  0.7500000    0.00000       Uiso       1.00
       O11          O  0.8192999  0.2375000  0.7500000    0.00000       Uiso       1.00
       O12          O  0.8478000  0.0953000  0.7500000    0.00000       Uiso       1.00
        N9          N  0.7548000  0.2190000  0.7500000    0.00000       Uiso       1.00
       N10          N  0.7664000  0.1959000  0.7500000    0.00000       Uiso       1.00
       N11          N  0.9008000  0.1370000  0.7500000    0.00000       Uiso       1.00
       N12          N  0.9122999  0.1138000  0.7500000    0.00000       Uiso       1.00
       C45          C  0.7229999  0.2096000  0.7500000    0.00000       Uiso       1.00
       C46          C  0.8003000  0.2071000  0.7500000    0.00000       Uiso       1.00
       C47          C  0.8159000  0.1848000  0.7500000    0.00000       Uiso       1.00
       C48          C  0.7977000  0.1492000  0.7500000    0.00000       Uiso       1.00
       C49          C  0.8156999  0.1317000  0.7500000    0.00000       Uiso       1.00
       C50          C  0.8512000  0.1480000  0.7500000    0.00000       Uiso       1.00
       C51          C  0.8514000  0.2011000  0.7500000    0.00000       Uiso       1.00
       C52          C  0.8694000  0.1836000  0.7500000    0.00000       Uiso       1.00
       C53          C  0.8668000  0.1257000  0.7500000    0.00000       Uiso       1.00
       C54          C  0.9440000  0.1231000  0.7500000    0.00000       Uiso       1.00
       C55          C  0.9500999  0.9273000  0.7500000    0.00000       Uiso       1.00
       C56          C  0.9149000  0.9152000  0.7500000    0.00000       Uiso       1.00
       C57          C  0.8916000  0.8809000  0.7500000    0.00000       Uiso       1.00
       C58          C  0.9020000  0.8571000  0.7500000    0.00000       Uiso       1.00
       C59          C  0.9365000  0.8683000  0.7500000    0.00000       Uiso       1.00
       C60          C  0.9601000  0.9026000  0.7500000    0.00000       Uiso       1.00
       C61          C  0.5342000  0.2650000  0.7500000    0.00000       Uiso       1.00
       C62          C  0.5931000  0.3106000  0.7500000    0.00000       Uiso       1.00
       C63          C  0.5228000  0.2881000  0.7500000    0.00000       Uiso       1.00
       C64          C  0.5464000  0.3224000  0.7500000    0.00000       Uiso       1.00
       C65          C  0.5686000  0.2759000  0.7500000    0.00000       Uiso       1.00
       C66          C  0.5809000  0.3335000  0.7500000    0.00000       Uiso       1.00
       H82          H  0.4029000  0.6396000  0.2500000    0.00000       Uiso       1.00
       H83          H  0.4617999  0.6592000  0.2500000    0.00000       Uiso       1.00
       H84          H  0.3530000  0.6251000  0.2500000    0.00000       Uiso       1.00
       H85          H  0.4837000  0.7618001  0.2500000    0.00000       Uiso       1.00
       H86          H  0.4251000  0.7437000  0.2500000    0.00000       Uiso       1.00
       H87          H  0.6971999  0.8019000  0.2500000    0.00000       Uiso       1.00
       H88          H  0.6371000  0.8653001  0.2500000    0.00000       Uiso       1.00
       H89          H  0.8502000  0.9050999  0.2500000    0.00000       Uiso       1.00
       H90          H  0.9085000  0.9227000  0.2500000    0.00000       Uiso       1.00
       H91          H  0.9811000  0.0412000  0.2500000    0.00000       Uiso       1.00
       H92          H  0.5213000  0.7043999  0.2500000    0.00000       Uiso       1.00
       O13          O  0.6303999  0.7623000  0.2500000    0.00000       Uiso       1.00
       O14          O  0.7039000  0.9048001  0.2500000    0.00000       Uiso       1.00
       O15          O  0.2375000  0.4182000  0.2500000    0.00000       Uiso       1.00
       O16          O  0.0953000  0.2475000  0.2500000    0.00000       Uiso       1.00
       N13          N  0.2190000  0.4642000  0.2500000    0.00000       Uiso       1.00
       N14          N  0.1959000  0.4295000  0.2500000    0.00000       Uiso       1.00
       N15          N  0.1370000  0.2362000  0.2500000    0.00000       Uiso       1.00
       N16          N  0.1138000  0.2015000  0.2500000    0.00000       Uiso       1.00
       C67          C  0.2096000  0.4866000  0.2500000    0.00000       Uiso       1.00
       C68          C  0.2071000  0.4067999  0.2500000    0.00000       Uiso       1.00
       C69          C  0.1848000  0.3689000  0.2500000    0.00000       Uiso       1.00
       C70          C  0.1492000  0.3515000  0.2500000    0.00000       Uiso       1.00
       C71          C  0.1317000  0.3160000  0.2500000    0.00000       Uiso       1.00
       C72          C  0.1480000  0.2968000  0.2500000    0.00000       Uiso       1.00
       C73          C  0.2011000  0.3497000  0.2500000    0.00000       Uiso       1.00
       C74          C  0.1836000  0.3142000  0.2500000    0.00000       Uiso       1.00
       C75          C  0.1257000  0.2589000  0.2500000    0.00000       Uiso       1.00
       C76          C  0.1231000  0.1791000  0.2500000    0.00000       Uiso       1.00
       C77          C  0.9273000  0.9772000  0.2500000    0.00000       Uiso       1.00
       C78          C  0.9151999  0.0003000  0.2500000    0.00000       Uiso       1.00
       C79          C  0.8809000  0.9893000  0.2500000    0.00000       Uiso       1.00
       C80          C  0.8571000  0.9550999  0.2500000    0.00000       Uiso       1.00
       C81          C  0.8683000  0.9318000  0.2500000    0.00000       Uiso       1.00
       C82          C  0.9026000  0.9424999  0.2500000    0.00000       Uiso       1.00
       C83          C  0.2650000  0.7308000  0.2500000    0.00000       Uiso       1.00
       C84          C  0.3106000  0.7175000  0.2500000    0.00000       Uiso       1.00
       C85          C  0.2881000  0.7653000  0.2500000    0.00000       Uiso       1.00
       C86          C  0.3224000  0.7760000  0.2500000    0.00000       Uiso       1.00
       C87          C  0.2759000  0.7072999  0.2500000    0.00000       Uiso       1.00
       C88          C  0.3335000  0.7526000  0.2500000    0.00000       Uiso       1.00
       H93          H  0.3604000  0.7632999  0.2500000    0.00000       Uiso       1.00
       H94          H  0.3408000  0.8026000  0.2500000    0.00000       Uiso       1.00
       H95          H  0.3749000  0.7279000  0.2500000    0.00000       Uiso       1.00
       H96          H  0.2381999  0.7219000  0.2500000    0.00000       Uiso       1.00
       H97          H  0.2563000  0.6813999  0.2500000    0.00000       Uiso       1.00
       H98          H  0.1981000  0.8952999  0.2500000    0.00000       Uiso       1.00
       H99          H  0.1346999  0.7717999  0.2500000    0.00000       Uiso       1.00
      H100          H  0.0949000  0.9451001  0.2500000    0.00000       Uiso       1.00
      H101          H  0.0772999  0.9857998  0.2500000    0.00000       Uiso       1.00
      H102          H  0.9588000  0.9398999  0.2500000    0.00000       Uiso       1.00
      H103          H  0.2956000  0.8168999  0.2500000    0.00000       Uiso       1.00
       O17          O  0.2377000  0.8680999  0.2500000    0.00000       Uiso       1.00
       O18          O  0.0951999  0.7990999  0.2500000    0.00000       Uiso       1.00
       O19          O  0.5818000  0.8193000  0.2500000    0.00000       Uiso       1.00
       O20          O  0.7524999  0.8478000  0.2500000    0.00000       Uiso       1.00
       N17          N  0.5358000  0.7547999  0.2500000    0.00000       Uiso       1.00
       N18          N  0.5705000  0.7664000  0.2500000    0.00000       Uiso       1.00
       N19          N  0.7638000  0.9008000  0.2500000    0.00000       Uiso       1.00
       N20          N  0.7985000  0.9123000  0.2500000    0.00000       Uiso       1.00
       C89          C  0.5134000  0.7229999  0.2500000    0.00000       Uiso       1.00
       C90          C  0.5932000  0.8003000  0.2500000    0.00000       Uiso       1.00
       C91          C  0.6310999  0.8159000  0.2500000    0.00000       Uiso       1.00
       C92          C  0.6485000  0.7977000  0.2500000    0.00000       Uiso       1.00
       C93          C  0.6840000  0.8156999  0.2500000    0.00000       Uiso       1.00
       C94          C  0.7032000  0.8512000  0.2500000    0.00000       Uiso       1.00
       C95          C  0.6503000  0.8514000  0.2500000    0.00000       Uiso       1.00
       C96          C  0.6858000  0.8694000  0.2500000    0.00000       Uiso       1.00
       C97          C  0.7411000  0.8668000  0.2500000    0.00000       Uiso       1.00
       C98          C  0.8209000  0.9439999  0.2500000    0.00000       Uiso       1.00
       C99          C  0.0228000  0.9500999  0.2500000    0.00000       Uiso       1.00
      C100          C  0.9997000  0.9149000  0.2500000    0.00000       Uiso       1.00
      C101          C  0.0107000  0.8916000  0.2500000    0.00000       Uiso       1.00
      C102          C  0.0449000  0.9020000  0.2500000    0.00000       Uiso       1.00
      C103          C  0.0682000  0.9365000  0.2500000    0.00000       Uiso       1.00
      C104          C  0.0575000  0.9600999  0.2500000    0.00000       Uiso       1.00
      C105          C  0.2692000  0.5342000  0.2500000    0.00000       Uiso       1.00
      C106          C  0.2825000  0.5931000  0.2500000    0.00000       Uiso       1.00
      C107          C  0.2347000  0.5228000  0.2500000    0.00000       Uiso       1.00
      C108          C  0.2240000  0.5464000  0.2500000    0.00000       Uiso       1.00
      C109          C  0.2927000  0.5686000  0.2500000    0.00000       Uiso       1.00
      C110          C  0.2474000  0.5809000  0.2500000    0.00000       Uiso       1.00
      H104          H  0.2367001  0.5971000  0.2500000    0.00000       Uiso       1.00
      H105          H  0.1974000  0.5382000  0.2500000    0.00000       Uiso       1.00
      H106          H  0.2721000  0.6470000  0.2500000    0.00000       Uiso       1.00
      H107          H  0.2781000  0.5163000  0.2500000    0.00000       Uiso       1.00
      H108          H  0.3186001  0.5749000  0.2500000    0.00000       Uiso       1.00
      H109          H  0.1047001  0.3028001  0.2500000    0.00000       Uiso       1.00
      H110          H  0.2282001  0.3629000  0.2500000    0.00000       Uiso       1.00
      H111          H  0.0548999  0.1497999  0.2500000    0.00000       Uiso       1.00
      H112          H  0.0142001  0.0915000  0.2500000    0.00000       Uiso       1.00
      H113          H  0.0601000  0.0189000  0.2500000    0.00000       Uiso       1.00
      H114          H  0.1831000  0.4787000  0.2500000    0.00000       Uiso       1.00
       O21          O  0.1319001  0.3696001  0.2500000    0.00000       Uiso       1.00
       O22          O  0.2009001  0.2961000  0.2500000    0.00000       Uiso       1.00
       O23          O  0.1807000  0.7625000  0.2500000    0.00000       Uiso       1.00
       O24          O  0.1522000  0.9047000  0.2500000    0.00000       Uiso       1.00
       N21          N  0.2452000  0.7810000  0.2500000    0.00000       Uiso       1.00
       N22          N  0.2335999  0.8041000  0.2500000    0.00000       Uiso       1.00
       N23          N  0.0991999  0.8630000  0.2500000    0.00000       Uiso       1.00
       N24          N  0.0877000  0.8862000  0.2500000    0.00000       Uiso       1.00
      C111          C  0.2770000  0.7904000  0.2500000    0.00000       Uiso       1.00
      C112          C  0.1997000  0.7929000  0.2500000    0.00000       Uiso       1.00
      C113          C  0.1840999  0.8151999  0.2500000    0.00000       Uiso       1.00
      C114          C  0.2022999  0.8507999  0.2500000    0.00000       Uiso       1.00
      C115          C  0.1843000  0.8683000  0.2500000    0.00000       Uiso       1.00
      C116          C  0.1488000  0.8520000  0.2500000    0.00000       Uiso       1.00
      C117          C  0.1486000  0.7989000  0.2500000    0.00000       Uiso       1.00
      C118          C  0.1306000  0.8164000  0.2500000    0.00000       Uiso       1.00
      C119          C  0.1332000  0.8743000  0.2500000    0.00000       Uiso       1.00
      C120          C  0.0560000  0.8769000  0.2500000    0.00000       Uiso       1.00
      C121          C  0.0499000  0.0727000  0.2500000    0.00000       Uiso       1.00
      C122          C  0.0851000  0.0848000  0.2500000    0.00000       Uiso       1.00
      C123          C  0.1084000  0.1191000  0.2500000    0.00000       Uiso       1.00
      C124          C  0.0980000  0.1429000  0.2500000    0.00000       Uiso       1.00
      C125          C  0.0635000  0.1317000  0.2500000    0.00000       Uiso       1.00
      C126          C  0.0399000  0.0974000  0.2500000    0.00000       Uiso       1.00
      C127          C  0.4658000  0.7350000  0.2500000    0.00000       Uiso       1.00
      C128          C  0.4069000  0.6894000  0.2500000    0.00000       Uiso       1.00
      C129          C  0.4772000  0.7119000  0.2500000    0.00000       Uiso       1.00
      C130          C  0.4536000  0.6776000  0.2500000    0.00000       Uiso       1.00
      C131          C  0.4314000  0.7241000  0.2500000    0.00000       Uiso       1.00
      C132          C  0.4191000  0.6665000  0.2500000    0.00000       Uiso       1.00
      H115          H  0.0956000  0.0685000  0.2500000    0.00000       Uiso       1.00
      H116          H  0.1351000  0.1272000  0.2500000    0.00000       Uiso       1.00
      H117          H  0.1623000  0.2438999  0.2500000    0.00000       Uiso       1.00
      H118          H  0.1705000  0.4218000  0.2500000    0.00000       Uiso       1.00
      H119          H  0.2747000  0.2983000  0.2500000    0.00000       Uiso       1.00
      H120          H  0.6328000  0.6908000  0.2500000    0.00000       Uiso       1.00
      H121          H  0.1497000  0.1869000  0.2500000    0.00000       Uiso       1.00
      C133          C  0.0342000  0.0107000  0.2500000    0.00000       Uiso       1.00
      C134          C  0.0241000  0.0352000  0.2500000    0.00000       Uiso       1.00
      C135          C  0.3450000  0.6431000  0.2500000    0.00000       Uiso       1.00
      C136          C  0.3693000  0.6775000  0.2500000    0.00000       Uiso       1.00
      C137          C  0.2469000  0.2864000  0.2500000    0.00000       Uiso       1.00
      C138          C  0.2367000  0.3131000  0.2500000    0.00000       Uiso       1.00
      C139          C  0.6209000  0.7067000  0.2500000    0.00000       Uiso       1.00
      C140          C  0.6475000  0.7436000  0.2500000    0.00000       Uiso       1.00
      H122          H  0.9315000  0.0271000  0.2500000    0.00000       Uiso       1.00
      H123          H  0.8727999  0.0079000  0.2500000    0.00000       Uiso       1.00
      H124          H  0.7561000  0.9184000  0.2500000    0.00000       Uiso       1.00
      H125          H  0.5782000  0.7487000  0.2500000    0.00000       Uiso       1.00
      H126          H  0.7017000  0.9764000  0.2500000    0.00000       Uiso       1.00
      H127          H  0.3092000  0.9419999  0.2500000    0.00000       Uiso       1.00
      H128          H  0.8131000  0.9628000  0.2500000    0.00000       Uiso       1.00
      C141          C  0.9893000  0.0235000  0.2500000    0.00000       Uiso       1.00
      C142          C  0.9648000  0.9889000  0.2500000    0.00000       Uiso       1.00
      C143          C  0.3569000  0.7018999  0.2500000    0.00000       Uiso       1.00
      C144          C  0.3225000  0.6918000  0.2500000    0.00000       Uiso       1.00
      C145          C  0.7136000  0.9605000  0.2500000    0.00000       Uiso       1.00
      C146          C  0.6869000  0.9235999  0.2500000    0.00000       Uiso       1.00
      C147          C  0.2933000  0.9141999  0.2500000    0.00000       Uiso       1.00
      C148          C  0.2564000  0.9039000  0.2500000    0.00000       Uiso       1.00
      H129          H  0.9729000  0.9044000  0.2500000    0.00000       Uiso       1.00
      H130          H  0.9921000  0.8649000  0.2500000    0.00000       Uiso       1.00
      H131          H  0.0816000  0.8377000  0.2500000    0.00000       Uiso       1.00
      H132          H  0.2512999  0.8294999  0.2500000    0.00000       Uiso       1.00
      H133          H  0.0236000  0.7253000  0.2500000    0.00000       Uiso       1.00
      H134          H  0.0580000  0.3672000  0.2500000    0.00000       Uiso       1.00
      H135          H  0.0372000  0.8503000  0.2500000    0.00000       Uiso       1.00
      C149          C  0.9765000  0.9658000  0.2500000    0.00000       Uiso       1.00
      C150          C  0.0111000  0.9758999  0.2500000    0.00000       Uiso       1.00
      C151          C  0.2981000  0.6550000  0.2500000    0.00000       Uiso       1.00
      C152          C  0.3082000  0.6307000  0.2500000    0.00000       Uiso       1.00
      C153          C  0.0395000  0.7531000  0.2500000    0.00000       Uiso       1.00
      C154          C  0.0764000  0.7632999  0.2500000    0.00000       Uiso       1.00
      C155          C  0.0858000  0.3791000  0.2500000    0.00000       Uiso       1.00
      C156          C  0.0961000  0.3525000  0.2500000    0.00000       Uiso       1.00
      H136          H  0.9043999  0.9314999  0.7500000    0.00000       Uiso       1.00
      H137          H  0.8649000  0.8728000  0.7500000    0.00000       Uiso       1.00
      H138          H  0.8377000  0.7561000  0.7500000    0.00000       Uiso       1.00
      H139          H  0.8295000  0.5782000  0.7500000    0.00000       Uiso       1.00
      H140          H  0.7253000  0.7017000  0.7500000    0.00000       Uiso       1.00
      H141          H  0.3672000  0.3092000  0.7500000    0.00000       Uiso       1.00
      H142          H  0.8503000  0.8131000  0.7500000    0.00000       Uiso       1.00
      C157          C  0.9658000  0.9893000  0.7500000    0.00000       Uiso       1.00
      C158          C  0.9759000  0.9648000  0.7500000    0.00000       Uiso       1.00
      C159          C  0.6550000  0.3569000  0.7500000    0.00000       Uiso       1.00
      C160          C  0.6307000  0.3225000  0.7500000    0.00000       Uiso       1.00
      C161          C  0.7531000  0.7136000  0.7500000    0.00000       Uiso       1.00
      C162          C  0.7632999  0.6869000  0.7500000    0.00000       Uiso       1.00
      C163          C  0.3791000  0.2932999  0.7500000    0.00000       Uiso       1.00
      C164          C  0.3525000  0.2564000  0.7500000    0.00000       Uiso       1.00
      H143          H  0.0685001  0.9729000  0.7500000    0.00000       Uiso       1.00
      H144          H  0.1272000  0.9921000  0.7500000    0.00000       Uiso       1.00
      H145          H  0.2438999  0.0816000  0.7500000    0.00000       Uiso       1.00
      H146          H  0.4218000  0.2513000  0.7500000    0.00000       Uiso       1.00
      H147          H  0.2983000  0.0236000  0.7500000    0.00000       Uiso       1.00
      H148          H  0.6908000  0.0580000  0.7500000    0.00000       Uiso       1.00
      H149          H  0.1869000  0.0372000  0.7500000    0.00000       Uiso       1.00
      C165          C  0.0107000  0.9765000  0.7500000    0.00000       Uiso       1.00
      C166          C  0.0352000  0.0111000  0.7500000    0.00000       Uiso       1.00
      C167          C  0.6431000  0.2981000  0.7500000    0.00000       Uiso       1.00
      C168          C  0.6774999  0.3082000  0.7500000    0.00000       Uiso       1.00
      C169          C  0.2864000  0.0395000  0.7500000    0.00000       Uiso       1.00
      C170          C  0.3131000  0.0764000  0.7500000    0.00000       Uiso       1.00
      C171          C  0.7067000  0.0858001  0.7500000    0.00000       Uiso       1.00
      C172          C  0.7436000  0.0961000  0.7500000    0.00000       Uiso       1.00
      H150          H  0.0271000  0.0956000  0.7500000    0.00000       Uiso       1.00
      H151          H  0.0079000  0.1351000  0.7500000    0.00000       Uiso       1.00
      H152          H  0.9184000  0.1623000  0.7500000    0.00000       Uiso       1.00
      H153          H  0.7487000  0.1705000  0.7500000    0.00000       Uiso       1.00
      H154          H  0.9764000  0.2747000  0.7500000    0.00000       Uiso       1.00
      H155          H  0.9420000  0.6328000  0.7500000    0.00000       Uiso       1.00
      H156          H  0.9628000  0.1497000  0.7500000    0.00000       Uiso       1.00
      C173          C  0.0235000  0.0342000  0.7500000    0.00000       Uiso       1.00
      C174          C  0.9888999  0.0241000  0.7500000    0.00000       Uiso       1.00
      C175          C  0.7018999  0.3450000  0.7500000    0.00000       Uiso       1.00
      C176          C  0.6918000  0.3693000  0.7500000    0.00000       Uiso       1.00
      C177          C  0.9605000  0.2469000  0.7500000    0.00000       Uiso       1.00
      C178          C  0.9236000  0.2367000  0.7500000    0.00000       Uiso       1.00
      C179          C  0.9141999  0.6209000  0.7500000    0.00000       Uiso       1.00
      C180          C  0.9039000  0.6475000  0.7500000    0.00000       Uiso       1.00
