data_COF-6
_audit_creation_date              0000-00-00
_audit_creation_method            'LanYouShi'
_symmetry_space_group_name_H-M    'P1'
_cell_length_a                    15.0910997
_cell_length_b                    15.0910997
_cell_length_c                    3.5987999
_cell_angle_alpha                 90.0000000
_cell_angle_beta                  90.0000000
_cell_angle_gamma                 120.0000000
loop_
_atom_site_label
_atom_site_type_symbol
_atom_site_fract_x
_atom_site_fract_y
_atom_site_fract_z
_atom_site_U_iso_or_equiv
_atom_site_adp_type
_atom_site_occupancy
        B1          B  0.4467400  0.5532600  0.5000000    0.00000       Uiso       1.00
        C1          C  0.3870200  0.6129800  0.5000000    0.00000       Uiso       1.00
        B2          B  0.4467400  0.8934800  0.5000000    0.00000       Uiso       1.00
        C2          C  0.3870200  0.7740400  0.5000000    0.00000       Uiso       1.00
        B3          B  0.1065200  0.5532600  0.5000000    0.00000       Uiso       1.00
        C3          C  0.2259600  0.6129800  0.5000000    0.00000       Uiso       1.00
        O1          O  0.5585200  0.9547200  0.5000000    0.00000       Uiso       1.00
        C4          C  0.6669300  0.2386100  0.5000000    0.00000       Uiso       1.00
        C5          C  0.5712000  0.0521900  0.5000000    0.00000       Uiso       1.00
        C6          C  0.6641100  0.1426300  0.5000000    0.00000       Uiso       1.00
        H1          H  0.7306600  0.1341500  0.5000000    0.00000       Uiso       1.00
        O2          O  0.0452800  0.6038000  0.5000000    0.00000       Uiso       1.00
        C7          C  0.7613900  0.4283201  0.5000000    0.00000       Uiso       1.00
        C8          C  0.9478101  0.5190101  0.5000000    0.00000       Uiso       1.00
        C9          C  0.8573700  0.5214800  0.5000000    0.00000       Uiso       1.00
        H2          H  0.8658500  0.5965101  0.5000000    0.00000       Uiso       1.00
        O3          O  0.3962000  0.4414800  0.5000000    0.00000       Uiso       1.00
       C10          C  0.5716800  0.3330700  0.5000000    0.00000       Uiso       1.00
       C11          C  0.4809900  0.4288000  0.5000000    0.00000       Uiso       1.00
       C12          C  0.4785200  0.3358900  0.5000000    0.00000       Uiso       1.00
        H3          H  0.4034900  0.2693400  0.5000000    0.00000       Uiso       1.00
        O4          O  0.0452800  0.4414800  0.5000000    0.00000       Uiso       1.00
       C13          C  0.7613900  0.3330700  0.5000000    0.00000       Uiso       1.00
       C14          C  0.9478100  0.4288000  0.5000000    0.00000       Uiso       1.00
       C15          C  0.8573700  0.3358900  0.5000000    0.00000       Uiso       1.00
        H4          H  0.8658500  0.2693400  0.5000000    0.00000       Uiso       1.00
        O5          O  0.3962000  0.9547200  0.5000000    0.00000       Uiso       1.00
       C16          C  0.5716800  0.2386100  0.5000000    0.00000       Uiso       1.00
       C17          C  0.4809900  0.0521900  0.5000000    0.00000       Uiso       1.00
       C18          C  0.4785200  0.1426300  0.5000000    0.00000       Uiso       1.00
        H5          H  0.4034900  0.1341500  0.5000000    0.00000       Uiso       1.00
        O6          O  0.5585200  0.6038000  0.5000000    0.00000       Uiso       1.00
       C19          C  0.6669300  0.4283201  0.5000000    0.00000       Uiso       1.00
       C20          C  0.5712001  0.5190101  0.5000000    0.00000       Uiso       1.00
       C21          C  0.6641100  0.5214800  0.5000000    0.00000       Uiso       1.00
        H6          H  0.7306600  0.5965101  0.5000000    0.00000       Uiso       1.00
       C22          C  0.4404400  0.7202200  0.5000000    0.00000       Uiso       1.00
       C23          C  0.2797800  0.7202200  0.5000000    0.00000       Uiso       1.00
       C24          C  0.2797800  0.5595600  0.5000000    0.00000       Uiso       1.00
        H7          H  0.2382900  0.4765800  0.5000000    0.00000       Uiso       1.00
        H8          H  0.5234200  0.7617100  0.5000000    0.00000       Uiso       1.00
        H9          H  0.2382900  0.7617100  0.5000000    0.00000       Uiso       1.00
