data_COF-66
_audit_creation_date              0000-00-00
_audit_creation_method            'LanYouShi'
_symmetry_space_group_name_H-M    'P1'
_cell_length_a                    42.8182983
_cell_length_b                    42.1055984
_cell_length_c                    7.3926001
_cell_angle_alpha                 90.0000000
_cell_angle_beta                  90.0000000
_cell_angle_gamma                 90.0000000
loop_
_atom_site_label
_atom_site_type_symbol
_atom_site_fract_x
_atom_site_fract_y
_atom_site_fract_z
_atom_site_U_iso_or_equiv
_atom_site_adp_type
_atom_site_occupancy
        C1          C  0.4192199  0.4171042  0.0000000    0.00000       Uiso       1.00
        C2          C  0.9192196  0.9171036  0.0000000    0.00000       Uiso       1.00
        C3          C  0.5807799  0.5828947  0.0000000    0.00000       Uiso       1.00
        C4          C  0.0807800  0.0828953  0.0000000    0.00000       Uiso       1.00
        C5          C  0.5807799  0.4171042  0.0000000    0.00000       Uiso       1.00
        C6          C  0.0807800  0.9171036  0.0000000    0.00000       Uiso       1.00
        C7          C  0.4192199  0.5828947  0.0000000    0.00000       Uiso       1.00
        C8          C  0.9192196  0.0828953  0.0000000    0.00000       Uiso       1.00
        C9          C  0.2911704  0.2906050 -0.1922517    0.00000       Uiso       1.00
       C10          C  0.7911702  0.7906044 -0.1922517    0.00000       Uiso       1.00
       C11          C  0.7088292  0.7093939 -0.1922517    0.00000       Uiso       1.00
       C12          C  0.2088294  0.2093945 -0.1922517    0.00000       Uiso       1.00
       C13          C  0.7088292  0.2906050  0.1922517    0.00000       Uiso       1.00
       C14          C  0.2088294  0.7906044  0.1922517    0.00000       Uiso       1.00
       C15          C  0.2911704  0.7093939  0.1922517    0.00000       Uiso       1.00
       C16          C  0.7911702  0.2093945  0.1922517    0.00000       Uiso       1.00
       C17          C  0.7088292  0.7093939  0.1922517    0.00000       Uiso       1.00
       C18          C  0.2088294  0.2093945  0.1922517    0.00000       Uiso       1.00
       C19          C  0.2911704  0.2906050  0.1922517    0.00000       Uiso       1.00
       C20          C  0.7911702  0.7906044  0.1922517    0.00000       Uiso       1.00
       C21          C  0.2911704  0.7093939 -0.1922517    0.00000       Uiso       1.00
       C22          C  0.7911702  0.2093945 -0.1922517    0.00000       Uiso       1.00
       C23          C  0.7088292  0.2906050 -0.1922517    0.00000       Uiso       1.00
       C24          C  0.2088294  0.7906044 -0.1922517    0.00000       Uiso       1.00
       C25          C  0.2705777  0.2702950 -0.0967171    0.00000       Uiso       1.00
       C26          C  0.7705775  0.7702944 -0.0967171    0.00000       Uiso       1.00
       C27          C  0.7294220  0.7297039 -0.0967171    0.00000       Uiso       1.00
       C28          C  0.2294221  0.2297045 -0.0967171    0.00000       Uiso       1.00
       C29          C  0.7294220  0.2702950  0.0967171    0.00000       Uiso       1.00
       C30          C  0.2294221  0.7702944  0.0967171    0.00000       Uiso       1.00
       C31          C  0.2705777  0.7297039  0.0967171    0.00000       Uiso       1.00
       C32          C  0.7705775  0.2297045  0.0967171    0.00000       Uiso       1.00
       C33          C  0.7294220  0.7297039  0.0967171    0.00000       Uiso       1.00
       C34          C  0.2294221  0.2297045  0.0967171    0.00000       Uiso       1.00
       C35          C  0.2705777  0.2702950  0.0967171    0.00000       Uiso       1.00
       C36          C  0.7705775  0.7702944  0.0967171    0.00000       Uiso       1.00
       C37          C  0.2705777  0.7297039 -0.0967171    0.00000       Uiso       1.00
       C38          C  0.7705775  0.2297045 -0.0967171    0.00000       Uiso       1.00
       C39          C  0.7294220  0.2702950 -0.0967171    0.00000       Uiso       1.00
       C40          C  0.2294221  0.7702944 -0.0967171    0.00000       Uiso       1.00
        N1          N  0.5492336  0.4999995  0.0000000    0.00000       Uiso       1.00
        N2          N  0.0492338  0.0000000  0.0000000    0.00000       Uiso       1.00
        N3          N  0.4507661  0.4999995  0.0000000    0.00000       Uiso       1.00
        N4          N  0.9507659  0.0000000  0.0000000    0.00000       Uiso       1.00
        H1          H  0.5266036  0.4999995  0.0000000    0.00000       Uiso       1.00
        H2          H  0.0266037  0.0000000  0.0000000    0.00000       Uiso       1.00
        H3          H  0.4733961  0.4999995  0.0000000    0.00000       Uiso       1.00
        H4          H  0.9733959  0.0000000  0.0000000    0.00000       Uiso       1.00
       C41          C  0.5675302  0.4734168  0.0000000    0.00000       Uiso       1.00
       C42          C  0.0675303  0.9734163  0.0000000    0.00000       Uiso       1.00
       C43          C  0.4324695  0.5265821  0.0000000    0.00000       Uiso       1.00
       C44          C  0.9324693  0.0265826  0.0000000    0.00000       Uiso       1.00
       C45          C  0.4324695  0.4734168  0.0000000    0.00000       Uiso       1.00
       C46          C  0.9324693  0.9734163  0.0000000    0.00000       Uiso       1.00
       C47          C  0.5675302  0.5265821  0.0000000    0.00000       Uiso       1.00
       C48          C  0.0675303  0.0265826  0.0000000    0.00000       Uiso       1.00
       C49          C  0.5992028  0.4841256  0.0000000    0.00000       Uiso       1.00
       C50          C  0.0992029  0.9841250  0.0000000    0.00000       Uiso       1.00
       C51          C  0.4007969  0.5158733  0.0000000    0.00000       Uiso       1.00
       C52          C  0.9007967  0.0158738  0.0000000    0.00000       Uiso       1.00
       C53          C  0.4007969  0.4841256  0.0000000    0.00000       Uiso       1.00
       C54          C  0.9007967  0.9841250  0.0000000    0.00000       Uiso       1.00
       C55          C  0.5992028  0.5158733  0.0000000    0.00000       Uiso       1.00
       C56          C  0.0992029  0.0158738  0.0000000    0.00000       Uiso       1.00
        H5          H  0.2918444  0.2912695 -0.3300791    0.00000       Uiso       1.00
        H6          H  0.7918442  0.7912689 -0.3300791    0.00000       Uiso       1.00
        H7          H  0.7081552  0.7087293 -0.3300791    0.00000       Uiso       1.00
        H8          H  0.2081554  0.2087299 -0.3300791    0.00000       Uiso       1.00
        H9          H  0.7081552  0.2912695  0.3300791    0.00000       Uiso       1.00
       H10          H  0.2081554  0.7912689  0.3300791    0.00000       Uiso       1.00
       H11          H  0.2918444  0.7087293  0.3300791    0.00000       Uiso       1.00
       H12          H  0.7918442  0.2087299  0.3300791    0.00000       Uiso       1.00
       H13          H  0.7081552  0.7087293  0.3300791    0.00000       Uiso       1.00
       H14          H  0.2081554  0.2087299  0.3300791    0.00000       Uiso       1.00
       H15          H  0.2918444  0.2912695  0.3300791    0.00000       Uiso       1.00
       H16          H  0.7918442  0.7912689  0.3300791    0.00000       Uiso       1.00
       H17          H  0.2918444  0.7087293 -0.3300791    0.00000       Uiso       1.00
       H18          H  0.7918442  0.2087299 -0.3300791    0.00000       Uiso       1.00
       H19          H  0.7081552  0.2912695 -0.3300791    0.00000       Uiso       1.00
       H20          H  0.2081554  0.7912689 -0.3300791    0.00000       Uiso       1.00
       H21          H  0.6187527  0.4702215  0.0000000    0.00000       Uiso       1.00
       H22          H  0.1187529  0.9702209  0.0000000    0.00000       Uiso       1.00
       H23          H  0.3812470  0.5297774  0.0000000    0.00000       Uiso       1.00
       H24          H  0.8812469  0.0297780  0.0000000    0.00000       Uiso       1.00
       H25          H  0.3812470  0.4702215  0.0000000    0.00000       Uiso       1.00
       H26          H  0.8812469  0.9702209  0.0000000    0.00000       Uiso       1.00
       H27          H  0.6187527  0.5297774  0.0000000    0.00000       Uiso       1.00
       H28          H  0.1187529  0.0297780  0.0000000    0.00000       Uiso       1.00
        N5          N  0.4999998  0.4489013  0.0000000    0.00000       Uiso       1.00
        N6          N  0.0000000  0.9489007  0.0000000    0.00000       Uiso       1.00
        N7          N  0.4999998  0.5510976  0.0000000    0.00000       Uiso       1.00
        N8          N  0.0000000  0.0510981  0.0000000    0.00000       Uiso       1.00
       C57          C  0.5263175  0.4305185  0.0000000    0.00000       Uiso       1.00
       C58          C  0.0263177  0.9305180  0.0000000    0.00000       Uiso       1.00
       C59          C  0.4736821  0.5694803  0.0000000    0.00000       Uiso       1.00
       C60          C  0.9736820  0.0694809  0.0000000    0.00000       Uiso       1.00
       C61          C  0.4736821  0.4305185  0.0000000    0.00000       Uiso       1.00
       C62          C  0.9736820  0.9305180  0.0000000    0.00000       Uiso       1.00
       C63          C  0.5263175  0.5694803  0.0000000    0.00000       Uiso       1.00
       C64          C  0.0263177  0.0694809  0.0000000    0.00000       Uiso       1.00
       C65          C  0.5164244  0.3989407  0.0000000    0.00000       Uiso       1.00
       C66          C  0.0164245  0.8989402  0.0000000    0.00000       Uiso       1.00
       C67          C  0.4835753  0.6010581  0.0000000    0.00000       Uiso       1.00
       C68          C  0.9835751  0.1010587  0.0000000    0.00000       Uiso       1.00
       C69          C  0.4835753  0.3989407  0.0000000    0.00000       Uiso       1.00
       C70          C  0.9835751  0.8989402  0.0000000    0.00000       Uiso       1.00
       C71          C  0.5164244  0.6010581  0.0000000    0.00000       Uiso       1.00
       C72          C  0.0164245  0.1010587  0.0000000    0.00000       Uiso       1.00
       H29          H  0.5301623  0.3790933  0.0000000    0.00000       Uiso       1.00
       H30          H  0.0301625  0.8790927  0.0000000    0.00000       Uiso       1.00
       H31          H  0.4698373  0.6209056  0.0000000    0.00000       Uiso       1.00
       H32          H  0.9698371  0.1209061  0.0000000    0.00000       Uiso       1.00
       H33          H  0.4698373  0.3790933  0.0000000    0.00000       Uiso       1.00
       H34          H  0.9698371  0.8790927  0.0000000    0.00000       Uiso       1.00
       H35          H  0.5301623  0.6209056  0.0000000    0.00000       Uiso       1.00
       H36          H  0.0301625  0.1209061  0.0000000    0.00000       Uiso       1.00
       C73          C  0.5578363  0.4404413  0.0000000    0.00000       Uiso       1.00
       C74          C  0.0578365  0.9404407  0.0000000    0.00000       Uiso       1.00
       C75          C  0.4421633  0.5595576  0.0000000    0.00000       Uiso       1.00
       C76          C  0.9421632  0.0595582  0.0000000    0.00000       Uiso       1.00
       C77          C  0.4421633  0.4404413  0.0000000    0.00000       Uiso       1.00
       C78          C  0.9421632  0.9404407  0.0000000    0.00000       Uiso       1.00
       C79          C  0.5578363  0.5595576  0.0000000    0.00000       Uiso       1.00
       C80          C  0.0578365  0.0595582  0.0000000    0.00000       Uiso       1.00
       C81          C  0.0930893  0.0952253 -0.1648614    0.00000       Uiso       1.00
       C82          C  0.5930892  0.5952247 -0.1648614    0.00000       Uiso       1.00
       C83          C  0.9069103  0.9047737 -0.1648614    0.00000       Uiso       1.00
       C84          C  0.4069105  0.4047742 -0.1648614    0.00000       Uiso       1.00
       C85          C  0.9069103  0.0952253  0.1648614    0.00000       Uiso       1.00
       C86          C  0.4069105  0.5952247  0.1648614    0.00000       Uiso       1.00
       C87          C  0.0930893  0.9047737  0.1648614    0.00000       Uiso       1.00
       C88          C  0.5930892  0.4047742  0.1648614    0.00000       Uiso       1.00
       C89          C  0.9069103  0.9047737  0.1648614    0.00000       Uiso       1.00
       C90          C  0.4069105  0.4047742  0.1648614    0.00000       Uiso       1.00
       C91          C  0.0930893  0.0952253  0.1648614    0.00000       Uiso       1.00
       C92          C  0.5930892  0.5952247  0.1648614    0.00000       Uiso       1.00
       C93          C  0.0930893  0.9047737 -0.1648614    0.00000       Uiso       1.00
       C94          C  0.5930892  0.4047742 -0.1648614    0.00000       Uiso       1.00
       C95          C  0.9069103  0.0952253 -0.1648614    0.00000       Uiso       1.00
       C96          C  0.4069105  0.5952247 -0.1648614    0.00000       Uiso       1.00
       C97          C  0.1166808  0.1185068 -0.1647616    0.00000       Uiso       1.00
       C98          C  0.6166807  0.6185062 -0.1647616    0.00000       Uiso       1.00
       C99          C  0.8833189  0.8814921 -0.1647616    0.00000       Uiso       1.00
      C100          C  0.3833190  0.3814927 -0.1647616    0.00000       Uiso       1.00
      C101          C  0.8833189  0.1185068  0.1647616    0.00000       Uiso       1.00
      C102          C  0.3833190  0.6185062  0.1647616    0.00000       Uiso       1.00
      C103          C  0.1166808  0.8814921  0.1647616    0.00000       Uiso       1.00
      C104          C  0.6166807  0.3814927  0.1647616    0.00000       Uiso       1.00
      C105          C  0.8833189  0.8814921  0.1647616    0.00000       Uiso       1.00
      C106          C  0.3833190  0.3814927  0.1647616    0.00000       Uiso       1.00
      C107          C  0.1166808  0.1185068  0.1647616    0.00000       Uiso       1.00
      C108          C  0.6166807  0.6185062  0.1647616    0.00000       Uiso       1.00
      C109          C  0.1166808  0.8814921 -0.1647616    0.00000       Uiso       1.00
      C110          C  0.6166807  0.3814927 -0.1647616    0.00000       Uiso       1.00
      C111          C  0.8833189  0.1185068 -0.1647616    0.00000       Uiso       1.00
      C112          C  0.3833190  0.6185062 -0.1647616    0.00000       Uiso       1.00
        O1          O  0.1676359  0.1687652 -0.1596481    0.00000       Uiso       1.00
        O2          O  0.6676357  0.6687647 -0.1596481    0.00000       Uiso       1.00
        O3          O  0.8323638  0.8312337 -0.1596481    0.00000       Uiso       1.00
        O4          O  0.3323640  0.3312342 -0.1596481    0.00000       Uiso       1.00
        O5          O  0.8323638  0.1687652  0.1596481    0.00000       Uiso       1.00
        O6          O  0.3323640  0.6687647  0.1596481    0.00000       Uiso       1.00
        O7          O  0.1676359  0.8312337  0.1596481    0.00000       Uiso       1.00
        O8          O  0.6676357  0.3312342  0.1596481    0.00000       Uiso       1.00
        O9          O  0.8323638  0.8312337  0.1596481    0.00000       Uiso       1.00
       O10          O  0.3323640  0.3312342  0.1596481    0.00000       Uiso       1.00
       O11          O  0.1676359  0.1687652  0.1596481    0.00000       Uiso       1.00
       O12          O  0.6676357  0.6687647  0.1596481    0.00000       Uiso       1.00
       O13          O  0.1676359  0.8312337 -0.1596481    0.00000       Uiso       1.00
       O14          O  0.6676357  0.3312342 -0.1596481    0.00000       Uiso       1.00
       O15          O  0.8323638  0.1687652 -0.1596481    0.00000       Uiso       1.00
       O16          O  0.3323640  0.6687647 -0.1596481    0.00000       Uiso       1.00
      C113          C  0.3112664  0.3104252 -0.0943892    0.00000       Uiso       1.00
      C114          C  0.8112662  0.8104246 -0.0943892    0.00000       Uiso       1.00
      C115          C  0.6887333  0.6895736 -0.0943892    0.00000       Uiso       1.00
      C116          C  0.1887335  0.1895742 -0.0943892    0.00000       Uiso       1.00
      C117          C  0.6887333  0.3104252  0.0943892    0.00000       Uiso       1.00
      C118          C  0.1887335  0.8104246  0.0943892    0.00000       Uiso       1.00
      C119          C  0.3112664  0.6895736  0.0943892    0.00000       Uiso       1.00
      C120          C  0.8112662  0.1895742  0.0943892    0.00000       Uiso       1.00
      C121          C  0.6887333  0.6895736  0.0943892    0.00000       Uiso       1.00
      C122          C  0.1887335  0.1895742  0.0943892    0.00000       Uiso       1.00
      C123          C  0.3112664  0.3104252  0.0943892    0.00000       Uiso       1.00
      C124          C  0.8112662  0.8104246  0.0943892    0.00000       Uiso       1.00
      C125          C  0.3112664  0.6895736 -0.0943892    0.00000       Uiso       1.00
      C126          C  0.8112662  0.1895742 -0.0943892    0.00000       Uiso       1.00
      C127          C  0.6887333  0.3104252 -0.0943892    0.00000       Uiso       1.00
      C128          C  0.1887335  0.8104246 -0.0943892    0.00000       Uiso       1.00
      C129          C  0.3716394  0.6308957  0.0000000    0.00000       Uiso       1.00
      C130          C  0.8716393  0.1308962  0.0000000    0.00000       Uiso       1.00
      C131          C  0.6283602  0.3691032  0.0000000    0.00000       Uiso       1.00
      C132          C  0.1283604  0.8691026  0.0000000    0.00000       Uiso       1.00
      C133          C  0.6283602  0.6308957  0.0000000    0.00000       Uiso       1.00
      C134          C  0.1283604  0.1308962  0.0000000    0.00000       Uiso       1.00
      C135          C  0.3716394  0.3691032  0.0000000    0.00000       Uiso       1.00
      C136          C  0.8716393  0.8691026  0.0000000    0.00000       Uiso       1.00
        B1          B  0.3466513  0.6555440  0.0000000    0.00000       Uiso       1.00
        B2          B  0.8466511  0.1555445  0.0000000    0.00000       Uiso       1.00
        B3          B  0.6533484  0.3444549  0.0000000    0.00000       Uiso       1.00
        B4          B  0.1533486  0.8444543  0.0000000    0.00000       Uiso       1.00
        B5          B  0.6533484  0.6555440  0.0000000    0.00000       Uiso       1.00
        B6          B  0.1533486  0.1555445  0.0000000    0.00000       Uiso       1.00
        B7          B  0.3466513  0.3444549  0.0000000    0.00000       Uiso       1.00
        B8          B  0.8466511  0.8444543  0.0000000    0.00000       Uiso       1.00
      C137          C  0.2499999  0.2499997 -0.1908852    0.00000       Uiso       1.00
      C138          C  0.7499998  0.7499992 -0.1908852    0.00000       Uiso       1.00
      C139          C  0.7499998  0.2499997  0.1908852    0.00000       Uiso       1.00
      C140          C  0.2499999  0.7499992  0.1908852    0.00000       Uiso       1.00
      C141          C  0.7499998  0.7499992  0.1908852    0.00000       Uiso       1.00
      C142          C  0.2499999  0.2499997  0.1908852    0.00000       Uiso       1.00
      C143          C  0.2499999  0.7499992 -0.1908852    0.00000       Uiso       1.00
      C144          C  0.7499998  0.2499997 -0.1908852    0.00000       Uiso       1.00
       H37          H  0.0846740  0.0869310 -0.2856961    0.00000       Uiso       1.00
       H38          H  0.5846738  0.5869305 -0.2856961    0.00000       Uiso       1.00
       H39          H  0.9153257  0.9130678 -0.2856961    0.00000       Uiso       1.00
       H40          H  0.4153258  0.4130684 -0.2856961    0.00000       Uiso       1.00
       H41          H  0.9153257  0.0869310  0.2856961    0.00000       Uiso       1.00
       H42          H  0.4153258  0.5869305  0.2856961    0.00000       Uiso       1.00
       H43          H  0.0846740  0.9130678  0.2856961    0.00000       Uiso       1.00
       H44          H  0.5846738  0.4130684  0.2856961    0.00000       Uiso       1.00
       H45          H  0.9153257  0.9130678  0.2856961    0.00000       Uiso       1.00
       H46          H  0.4153258  0.4130684  0.2856961    0.00000       Uiso       1.00
       H47          H  0.0846740  0.0869310  0.2856961    0.00000       Uiso       1.00
       H48          H  0.5846738  0.5869305  0.2856961    0.00000       Uiso       1.00
       H49          H  0.0846740  0.9130678 -0.2856961    0.00000       Uiso       1.00
       H50          H  0.5846738  0.4130684 -0.2856961    0.00000       Uiso       1.00
       H51          H  0.9153257  0.0869310 -0.2856961    0.00000       Uiso       1.00
       H52          H  0.4153258  0.5869305 -0.2856961    0.00000       Uiso       1.00
       H53          H  0.1250669  0.1267886 -0.2858426    0.00000       Uiso       1.00
       H54          H  0.6250668  0.6267881 -0.2858426    0.00000       Uiso       1.00
       H55          H  0.8749328  0.8732103 -0.2858426    0.00000       Uiso       1.00
       H56          H  0.3749329  0.3732108 -0.2858426    0.00000       Uiso       1.00
       H57          H  0.8749328  0.1267886  0.2858426    0.00000       Uiso       1.00
       H58          H  0.3749329  0.6267881  0.2858426    0.00000       Uiso       1.00
       H59          H  0.1250669  0.8732103  0.2858426    0.00000       Uiso       1.00
       H60          H  0.6250668  0.3732108  0.2858426    0.00000       Uiso       1.00
       H61          H  0.8749328  0.8732103  0.2858426    0.00000       Uiso       1.00
       H62          H  0.3749329  0.3732108  0.2858426    0.00000       Uiso       1.00
       H63          H  0.1250669  0.1267886  0.2858426    0.00000       Uiso       1.00
       H64          H  0.6250668  0.6267881  0.2858426    0.00000       Uiso       1.00
       H65          H  0.1250669  0.8732103 -0.2858426    0.00000       Uiso       1.00
       H66          H  0.6250668  0.3732108 -0.2858426    0.00000       Uiso       1.00
       H67          H  0.8749328  0.1267886 -0.2858426    0.00000       Uiso       1.00
       H68          H  0.3749329  0.6267881 -0.2858426    0.00000       Uiso       1.00
       H69          H  0.2499999  0.2499997 -0.3292622    0.00000       Uiso       1.00
       H70          H  0.7499998  0.7499992 -0.3292622    0.00000       Uiso       1.00
       H71          H  0.7499998  0.2499997  0.3292622    0.00000       Uiso       1.00
       H72          H  0.2499999  0.7499992  0.3292622    0.00000       Uiso       1.00
       H73          H  0.7499998  0.7499992  0.3292622    0.00000       Uiso       1.00
       H74          H  0.2499999  0.2499997  0.3292622    0.00000       Uiso       1.00
       H75          H  0.2499999  0.7499992 -0.3292622    0.00000       Uiso       1.00
       H76          H  0.7499998  0.2499997 -0.3292622    0.00000       Uiso       1.00
