data_crystal
 
_cell_length_a    15.49750
_cell_length_b    15.49750
_cell_length_c    3.60000
_cell_angle_alpha 90.00000
_cell_angle_beta  90.00000
_cell_angle_gamma 120.00000
 
_symmetry_space_group_name_Hall 'P 1'
_symmetry_space_group_name_H-M  'P 1'
 
loop_
_symmetry_equiv_pos_as_xyz
 'x,y,z' 
 
loop_
_atom_site_label
_atom_site_type_symbol
_atom_site_fract_x
_atom_site_fract_y
_atom_site_fract_z
_atom_site_charge
N          N       0.04534   0.53979   0.50000   0.0000000000
N          N       0.46021   0.50555   0.50000   0.0000000000
N          N       0.49445   0.95466   0.50000   0.0000000000
N          N       0.95466   0.46021   0.50000   0.0000000000
N          N       0.53979   0.49445   0.50000   0.0000000000
N          N       0.50555   0.04534   0.50000   0.0000000000
C          C       0.13229   0.53781   0.50000   0.0000000000
C          C       0.46219   0.59448   0.50000   0.0000000000
C          C       0.40552   0.86771   0.50000   0.0000000000
C          C       0.86771   0.46219   0.50000   0.0000000000
C          C       0.53781   0.40552   0.50000   0.0000000000
C          C       0.59448   0.13229   0.50000   0.0000000000
H          H       0.13064   0.46344   0.50000   0.0000000000
H          H       0.53656   0.66720   0.50000   0.0000000000
H          H       0.33280   0.86936   0.50000   0.0000000000
H          H       0.86936   0.53656   0.50000   0.0000000000
H          H       0.46344   0.33280   0.50000   0.0000000000
H          H       0.66720   0.13064   0.50000   0.0000000000
H          H       0.04695   0.61220   0.50000   0.0000000000
H          H       0.38780   0.43474   0.50000   0.0000000000
H          H       0.56526   0.95305   0.50000   0.0000000000
H          H       0.95305   0.38780   0.50000   0.0000000000
H          H       0.61220   0.56526   0.50000   0.0000000000
H          H       0.43474   0.04695   0.50000   0.0000000000
C          C       0.29942   0.56427   0.50000   0.0000000000
C          C       0.22852   0.59661   0.50000   0.0000000000
C          C       0.43573   0.73515   0.50000   0.0000000000
C          C       0.40339   0.63191   0.50000   0.0000000000
C          C       0.26485   0.70058   0.50000   0.0000000000
C          C       0.36809   0.77148   0.50000   0.0000000000
C          C       0.70058   0.43573   0.50000   0.0000000000
C          C       0.77148   0.40339   0.50000   0.0000000000
C          C       0.56427   0.26485   0.50000   0.0000000000
C          C       0.59661   0.36809   0.50000   0.0000000000
C          C       0.73515   0.29942   0.50000   0.0000000000
C          C       0.63191   0.22852   0.50000   0.0000000000
O          O       0.27302   0.48015   0.50000   0.0000000000
O          O       0.51985   0.79287   0.50000   0.0000000000
O          O       0.20713   0.72698   0.50000   0.0000000000
O          O       0.72698   0.51985   0.50000   0.0000000000
O          O       0.48015   0.20713   0.50000   0.0000000000
O          O       0.79287   0.27302   0.50000   0.0000000000
