data_COF-LZU1
_audit_creation_date              0000-00-00
_audit_creation_method            'LanYouShi'
_symmetry_space_group_name_H-M    'P1'
_cell_length_a                    22.0400009
_cell_length_b                    22.0400009
_cell_length_c                    3.7290001
_cell_angle_alpha                 90.0000000
_cell_angle_beta                  90.0000000
_cell_angle_gamma                 120.0000000
loop_
_atom_site_label
_atom_site_type_symbol
_atom_site_fract_x
_atom_site_fract_y
_atom_site_fract_z
_atom_site_U_iso_or_equiv
_atom_site_adp_type
_atom_site_occupancy
        C1          C  0.7367600  0.3842800  0.5000000    0.00000       Uiso       1.00
        C2          C  0.6863000  0.4037400  0.5000000    0.00000       Uiso       1.00
        C3          C  0.8093700  0.4376600  0.5000000    0.00000       Uiso       1.00
        N1          N  0.8549600  0.4178000  0.5000000    0.00000       Uiso       1.00
        C4          C  0.9280699  0.4608800  0.5000000    0.00000       Uiso       1.00
        C5          C  0.9669600  0.4272400  0.5000000    0.00000       Uiso       1.00
        C6          C  0.0389000  0.4659500  0.5000000    0.00000       Uiso       1.00
        H1          H  0.7023500  0.4587800  0.5000000    0.00000       Uiso       1.00
        H2          H  0.8234699  0.4919800  0.5000000    0.00000       Uiso       1.00
        H3          H  0.9411399  0.3707300  0.5000000    0.00000       Uiso       1.00
        H4          H  0.0672400  0.4379800  0.5000000    0.00000       Uiso       1.00
        C7          C  0.6157200  0.3524800  0.5000000    0.00000       Uiso       1.00
        C8          C  0.5962600  0.2825600  0.5000000    0.00000       Uiso       1.00
        C9          C  0.5623400  0.3717099  0.5000000    0.00000       Uiso       1.00
        N2          N  0.5821999  0.4371600  0.5000000    0.00000       Uiso       1.00
       C10          C  0.5391200  0.4671900  0.5000000    0.00000       Uiso       1.00
       C11          C  0.5727600  0.5397200  0.5000000    0.00000       Uiso       1.00
       C12          C  0.5340500  0.5729500  0.5000000    0.00000       Uiso       1.00
        H5          H  0.5412200  0.2435700  0.5000000    0.00000       Uiso       1.00
        H6          H  0.5080200  0.3314900  0.5000000    0.00000       Uiso       1.00
        H7          H  0.6292700  0.5704100  0.5000000    0.00000       Uiso       1.00
        H8          H  0.5620200  0.6292600  0.5000000    0.00000       Uiso       1.00
       C13          C  0.6475199  0.2632400  0.5000000    0.00000       Uiso       1.00
       C14          C  0.7174400  0.3137000  0.5000000    0.00000       Uiso       1.00
       C15          C  0.6282900  0.1906300  0.5000000    0.00000       Uiso       1.00
        N3          N  0.5628400  0.1450400  0.5000000    0.00000       Uiso       1.00
       C16          C  0.5328100  0.0719300  0.5000000    0.00000       Uiso       1.00
       C17          C  0.4602800  0.0330400  0.5000000    0.00000       Uiso       1.00
       C18          C  0.4270500  0.9610999  0.5000000    0.00000       Uiso       1.00
        H9          H  0.7564300  0.2976499  0.5000000    0.00000       Uiso       1.00
       H10          H  0.6685100  0.1765300  0.5000000    0.00000       Uiso       1.00
       H11          H  0.4295900  0.0588600  0.5000000    0.00000       Uiso       1.00
       H12          H  0.3707400  0.9327599  0.5000000    0.00000       Uiso       1.00
       C19          C  0.2632400  0.6157200  0.5000000    0.00000       Uiso       1.00
       C20          C  0.3137000  0.5962600  0.5000000    0.00000       Uiso       1.00
       C21          C  0.1906300  0.5623400  0.5000000    0.00000       Uiso       1.00
        N4          N  0.1450400  0.5822000  0.5000000    0.00000       Uiso       1.00
       C22          C  0.0719300  0.5391200  0.5000000    0.00000       Uiso       1.00
       C23          C  0.0330400  0.5727600  0.5000000    0.00000       Uiso       1.00
       C24          C  0.9610999  0.5340499  0.5000000    0.00000       Uiso       1.00
       H13          H  0.2976500  0.5412200  0.5000000    0.00000       Uiso       1.00
       H14          H  0.1765300  0.5080200  0.5000000    0.00000       Uiso       1.00
       H15          H  0.0588600  0.6292700  0.5000000    0.00000       Uiso       1.00
       H16          H  0.9327599  0.5620200  0.5000000    0.00000       Uiso       1.00
       C25          C  0.3842800  0.6475199  0.5000000    0.00000       Uiso       1.00
       C26          C  0.4037400  0.7174400  0.5000000    0.00000       Uiso       1.00
       C27          C  0.4376600  0.6282900  0.5000000    0.00000       Uiso       1.00
        N5          N  0.4178000  0.5628399  0.5000000    0.00000       Uiso       1.00
       C28          C  0.4608800  0.5328100  0.5000000    0.00000       Uiso       1.00
       C29          C  0.4272400  0.4602800  0.5000000    0.00000       Uiso       1.00
       C30          C  0.4659500  0.4270500  0.5000000    0.00000       Uiso       1.00
       H17          H  0.4587800  0.7564300  0.5000000    0.00000       Uiso       1.00
       H18          H  0.4919800  0.6685100  0.5000000    0.00000       Uiso       1.00
       H19          H  0.3707300  0.4295900  0.5000000    0.00000       Uiso       1.00
       H20          H  0.4379800  0.3707400  0.5000000    0.00000       Uiso       1.00
       C31          C  0.3524800  0.7367600  0.5000000    0.00000       Uiso       1.00
       C32          C  0.2825600  0.6862999  0.5000000    0.00000       Uiso       1.00
       C33          C  0.3717099  0.8093699  0.5000000    0.00000       Uiso       1.00
        N6          N  0.4371600  0.8549600  0.5000000    0.00000       Uiso       1.00
       C34          C  0.4671900  0.9280700  0.5000000    0.00000       Uiso       1.00
       C35          C  0.5397199  0.9669600  0.5000000    0.00000       Uiso       1.00
       C36          C  0.5729499  0.0389000  0.5000000    0.00000       Uiso       1.00
       H21          H  0.2435700  0.7023500  0.5000000    0.00000       Uiso       1.00
       H22          H  0.3314900  0.8234699  0.5000000    0.00000       Uiso       1.00
       H23          H  0.5704100  0.9411400  0.5000000    0.00000       Uiso       1.00
       H24          H  0.6292600  0.0672400  0.5000000    0.00000       Uiso       1.00
