data_COF-TpAzo
_audit_creation_date              0000-00-00
_audit_creation_method            'LanYouShi'
_symmetry_space_group_name_H-M    'P1'
_cell_length_a                    31.8577995
_cell_length_b                    31.8577995
_cell_length_c                    3.5999999
_cell_angle_alpha                 90.0000000
_cell_angle_beta                  90.0000000
_cell_angle_gamma                 60.0000000
loop_
_atom_site_label
_atom_site_type_symbol
_atom_site_fract_x
_atom_site_fract_y
_atom_site_fract_z
_atom_site_U_iso_or_equiv
_atom_site_adp_type
_atom_site_occupancy
        N1          N  0.6159379  0.5844195  1.3888890    0.00000       Uiso       1.00
        C1          C  0.6050081  0.6303232  1.3888890    0.00000       Uiso       1.00
        C2          C  0.5841334  0.5693589  1.3888890    0.00000       Uiso       1.00
        C3          C  0.5378762  0.5985319  1.3888890    0.00000       Uiso       1.00
        C4          C  0.5086132  0.5819424  1.3888890    0.00000       Uiso       1.00
        C5          C  0.5246789  0.5363165  1.3888890    0.00000       Uiso       1.00
        C6          C  0.5705806  0.5070835  1.3888890    0.00000       Uiso       1.00
        C7          C  0.5999327  0.5235049  1.3888890    0.00000       Uiso       1.00
        H1          H  0.5703167  0.6551054  1.3888890    0.00000       Uiso       1.00
        H2          H  0.5235403  0.6339764  1.3888890    0.00000       Uiso       1.00
        H3          H  0.6488128  0.5591584  1.3888890    0.00000       Uiso       1.00
        H4          H  0.6352431  0.5003472  1.3888890    0.00000       Uiso       1.00
        H5          H  0.4731953  0.6045753  1.3888890    0.00000       Uiso       1.00
        H6          H  0.5834447  0.4716657  1.3888890    0.00000       Uiso       1.00
        N2          N  0.3840623  0.4155807  1.3888890    0.00000       Uiso       1.00
        C8          C  0.3949921  0.3696770  1.3888890    0.00000       Uiso       1.00
        C9          C  0.4158669  0.4306413  1.3888890    0.00000       Uiso       1.00
       C10          C  0.4621240  0.4014683  1.3888890    0.00000       Uiso       1.00
       C11          C  0.4913869  0.4180578  1.3888890    0.00000       Uiso       1.00
       C12          C  0.4753214  0.4636837  1.3888890    0.00000       Uiso       1.00
       C13          C  0.4294196  0.4929167  1.3888890    0.00000       Uiso       1.00
       C14          C  0.4000675  0.4764953  1.3888890    0.00000       Uiso       1.00
        H7          H  0.4296836  0.3448948  1.3888890    0.00000       Uiso       1.00
        H8          H  0.4764599  0.3660238  1.3888890    0.00000       Uiso       1.00
        H9          H  0.3511873  0.4408418  1.3888890    0.00000       Uiso       1.00
       H10          H  0.3647571  0.4996530  1.3888890    0.00000       Uiso       1.00
       H11          H  0.5268049  0.3954249  1.3888890    0.00000       Uiso       1.00
       H12          H  0.4165556  0.5283346  1.3888890    0.00000       Uiso       1.00
        N3          N  0.4937647  0.5205847  1.3888890    0.00000       Uiso       1.00
        N4          N  0.5062355  0.4794155  1.3888890    0.00000       Uiso       1.00
        N5          N  0.7996430  0.6159379  1.3888890    0.00000       Uiso       1.00
       C15          C  0.7646692  0.6050081  1.3888890    0.00000       Uiso       1.00
       C16          C  0.8465081  0.5841334  1.3888890    0.00000       Uiso       1.00
       C17          C  0.8635924  0.5378762  1.3888890    0.00000       Uiso       1.00
       C18          C  0.9094447  0.5086133  1.3888890    0.00000       Uiso       1.00
       C19          C  0.9390050  0.5246788  1.3888890    0.00000       Uiso       1.00
       C20          C  0.9223364  0.5705806  1.3888890    0.00000       Uiso       1.00
       C21          C  0.8765628  0.5999327  1.3888890    0.00000       Uiso       1.00
       H13          H  0.7745784  0.5703167  1.3888890    0.00000       Uiso       1.00
       H14          H  0.8424838  0.5235403  1.3888890    0.00000       Uiso       1.00
       H15          H  0.7920291  0.6488128  1.3888890    0.00000       Uiso       1.00
       H16          H  0.8644102  0.6352431  1.3888890    0.00000       Uiso       1.00
       H17          H  0.9222298  0.4731953  1.3888890    0.00000       Uiso       1.00
       H18          H  0.9448901  0.5834447  1.3888890    0.00000       Uiso       1.00
        N6          N  0.2003572  0.3840623  1.3888890    0.00000       Uiso       1.00
       C22          C  0.2353311  0.3949921  1.3888890    0.00000       Uiso       1.00
       C23          C  0.1534921  0.4158668  1.3888890    0.00000       Uiso       1.00
       C24          C  0.1364079  0.4621240  1.3888890    0.00000       Uiso       1.00
       C25          C  0.0905555  0.4913869  1.3888890    0.00000       Uiso       1.00
       C26          C  0.0609952  0.4753214  1.3888890    0.00000       Uiso       1.00
       C27          C  0.0776638  0.4294196  1.3888890    0.00000       Uiso       1.00
       C28          C  0.1234374  0.4000675  1.3888890    0.00000       Uiso       1.00
       H19          H  0.2254219  0.4296835  1.3888890    0.00000       Uiso       1.00
       H20          H  0.1575165  0.4764599  1.3888890    0.00000       Uiso       1.00
       H21          H  0.2079711  0.3511874  1.3888890    0.00000       Uiso       1.00
       H22          H  0.1355901  0.3647571  1.3888890    0.00000       Uiso       1.00
       H23          H  0.0777704  0.5268049  1.3888890    0.00000       Uiso       1.00
       H24          H  0.0551101  0.4165556  1.3888890    0.00000       Uiso       1.00
        N7          N  0.9856510  0.4937647  1.3888890    0.00000       Uiso       1.00
        N8          N  0.0143492  0.5062355  1.3888890    0.00000       Uiso       1.00
        N9          N  0.5844195  0.7996430  1.3888890    0.00000       Uiso       1.00
       C29          C  0.6303232  0.7646692  1.3888890    0.00000       Uiso       1.00
       C30          C  0.5693590  0.8465081  1.3888890    0.00000       Uiso       1.00
       C31          C  0.5985319  0.8635924  1.3888890    0.00000       Uiso       1.00
       C32          C  0.5819424  0.9094447  1.3888890    0.00000       Uiso       1.00
       C33          C  0.5363166  0.9390051  1.3888890    0.00000       Uiso       1.00
       C34          C  0.5070835  0.9223364  1.3888890    0.00000       Uiso       1.00
       C35          C  0.5235049  0.8765628  1.3888890    0.00000       Uiso       1.00
       H25          H  0.6551054  0.7745783  1.3888890    0.00000       Uiso       1.00
       H26          H  0.6339764  0.8424838  1.3888890    0.00000       Uiso       1.00
       H27          H  0.5591584  0.7920291  1.3888890    0.00000       Uiso       1.00
       H28          H  0.5003472  0.8644102  1.3888890    0.00000       Uiso       1.00
       H29          H  0.6045753  0.9222298  1.3888890    0.00000       Uiso       1.00
       H30          H  0.4716657  0.9448901  1.3888890    0.00000       Uiso       1.00
       N10          N  0.4155807  0.2003572  1.3888890    0.00000       Uiso       1.00
       C36          C  0.3696771  0.2353310  1.3888890    0.00000       Uiso       1.00
       C37          C  0.4306413  0.1534921  1.3888890    0.00000       Uiso       1.00
       C38          C  0.4014683  0.1364079  1.3888890    0.00000       Uiso       1.00
       C39          C  0.4180579  0.0905555  1.3888890    0.00000       Uiso       1.00
       C40          C  0.4636837  0.0609952  1.3888890    0.00000       Uiso       1.00
       C41          C  0.4929167  0.0776639  1.3888890    0.00000       Uiso       1.00
       C42          C  0.4764953  0.1234374  1.3888890    0.00000       Uiso       1.00
       H31          H  0.3448948  0.2254219  1.3888890    0.00000       Uiso       1.00
       H32          H  0.3660238  0.1575165  1.3888890    0.00000       Uiso       1.00
       H33          H  0.4408417  0.2079711  1.3888890    0.00000       Uiso       1.00
       H34          H  0.4996530  0.1355901  1.3888890    0.00000       Uiso       1.00
       H35          H  0.3954249  0.0777704  1.3888890    0.00000       Uiso       1.00
       H36          H  0.5283346  0.0551101  1.3888890    0.00000       Uiso       1.00
       N11          N  0.5205847  0.9856510  1.3888890    0.00000       Uiso       1.00
       N12          N  0.4794155  0.0143492  1.3888890    0.00000       Uiso       1.00
       C43          C  0.6867430  0.6162628  1.3888890    0.00000       Uiso       1.00
       C44          C  0.6356090  0.6461412  1.3888890    0.00000       Uiso       1.00
        O1          O  0.7040393  0.5746068  1.3888890    0.00000       Uiso       1.00
       C45          C  0.6162629  0.6969946  1.3888890    0.00000       Uiso       1.00
       C46          C  0.6461413  0.7182502  1.3888890    0.00000       Uiso       1.00
        O2          O  0.5746068  0.7213544  1.3888890    0.00000       Uiso       1.00
       C47          C  0.6969947  0.6867430  1.3888890    0.00000       Uiso       1.00
       C48          C  0.7182502  0.6356090  1.3888890    0.00000       Uiso       1.00
        O3          O  0.7213543  0.7040392  1.3888890    0.00000       Uiso       1.00
       C49          C  0.3132572  0.3837374  1.3888890    0.00000       Uiso       1.00
       C50          C  0.3643911  0.3538590  1.3888890    0.00000       Uiso       1.00
        O4          O  0.2959610  0.4253934  1.3888890    0.00000       Uiso       1.00
       C51          C  0.3837374  0.3030056  1.3888890    0.00000       Uiso       1.00
       C52          C  0.3538590  0.2817501  1.3888890    0.00000       Uiso       1.00
        O5          O  0.4253934  0.2786459  1.3888890    0.00000       Uiso       1.00
       C53          C  0.3030056  0.3132572  1.3888890    0.00000       Uiso       1.00
       C54          C  0.2817500  0.3643912  1.3888890    0.00000       Uiso       1.00
        O6          O  0.2786458  0.2959610  1.3888890    0.00000       Uiso       1.00
