data_CPF-1
_audit_creation_date              0000-00-00
_audit_creation_method            'LanYouShi'
_symmetry_space_group_name_H-M    'P1'
_cell_length_a                    41.9730988
_cell_length_b                    6.8010001
_cell_length_c                    42.0414009
_cell_angle_alpha                 90.0000000
_cell_angle_beta                  90.0016022
_cell_angle_gamma                 90.0000000
loop_
_atom_site_label
_atom_site_type_symbol
_atom_site_fract_x
_atom_site_fract_y
_atom_site_fract_z
_atom_site_U_iso_or_equiv
_atom_site_adp_type
_atom_site_occupancy
        N1          N  0.4497051  0.5000021  0.5083427    0.00000       Uiso       1.00
        N1          N  0.5502278  0.5000021  0.4917265    0.00000       Uiso       1.00
        N1          N  0.9499384  0.5000021  0.0083421    0.00000       Uiso       1.00
        N1          N  0.0499945  0.5000021  0.9917272    0.00000       Uiso       1.00
       H13          H  0.4725080  0.5000021  0.5045757    0.00000       Uiso       1.00
       H13          H  0.5274249  0.5000021  0.4954936    0.00000       Uiso       1.00
       H13          H  0.9727396  0.5000021  0.0045760    0.00000       Uiso       1.00
       H13          H  0.0271934  0.5000021  0.9954933    0.00000       Uiso       1.00
        C1          C  0.4276484  0.5000021  0.4849555    0.00000       Uiso       1.00
        C2          C  0.5722845  0.5000021  0.5151137    0.00000       Uiso       1.00
        C3          C  0.9277685  0.5000021  0.9849708    0.00000       Uiso       1.00
        C4          C  0.0721644  0.5000021  0.0150985    0.00000       Uiso       1.00
        C5          C  0.4363705  0.5000021  0.5375761    0.00000       Uiso       1.00
        C6          C  0.5635624  0.5000021  0.4624932    0.00000       Uiso       1.00
        C7          C  0.9365547  0.5000021  0.0375750    0.00000       Uiso       1.00
        C8          C  0.0633782  0.5000021  0.9624944    0.00000       Uiso       1.00
        C9          C  0.3981344  0.5000021  0.5002521    0.00000       Uiso       1.00
       C10          C  0.6017985  0.5000021  0.4998171    0.00000       Uiso       1.00
       C11          C  0.8983226  0.5000021  0.0002638    0.00000       Uiso       1.00
       C12          C  0.1016102  0.5000021  0.9998055    0.00000       Uiso       1.00
       C13          C  0.4034960  0.5000021  0.5325925    0.00000       Uiso       1.00
       C14          C  0.5964369  0.5000021  0.4674768    0.00000       Uiso       1.00
       C15          C  0.9036815  0.5000021  0.0325925    0.00000       Uiso       1.00
       C16          C  0.0962514  0.5000021  0.9674768    0.00000       Uiso       1.00
        H1          H  0.3761785  0.5000021  0.4897394    0.00000       Uiso       1.00
        H2          H  0.6237544  0.5000021  0.5103299    0.00000       Uiso       1.00
        H3          H  0.8762945  0.5000021  0.9897596    0.00000       Uiso       1.00
        H4          H  0.1236384  0.5000021  0.0103096    0.00000       Uiso       1.00
        H5          H  0.3861040  0.5000021  0.5495952    0.00000       Uiso       1.00
        H6          H  0.6138290  0.5000021  0.4504740    0.00000       Uiso       1.00
        H7          H  0.8862821  0.5000021  0.0495884    0.00000       Uiso       1.00
        H8          H  0.1136508  0.5000021  0.9504808    0.00000       Uiso       1.00
        N1          N  0.9917322  0.5000021  0.9506115    0.00000       Uiso       1.00
        N2          N  0.0082006  0.5000021  0.0494578    0.00000       Uiso       1.00
        N3          N  0.4917780  0.5000021  0.4506548    0.00000       Uiso       1.00
        N4          N  0.5081549  0.5000021  0.5494145    0.00000       Uiso       1.00
       C17          C  0.9625590  0.5000021  0.9367687    0.00000       Uiso       1.00
       C18          C  0.0373739  0.5000021  0.0633006    0.00000       Uiso       1.00
       C19          C  0.4625860  0.5000021  0.4368195    0.00000       Uiso       1.00
       C20          C  0.5373469  0.5000021  0.5632498    0.00000       Uiso       1.00
       C21          C  0.9850489  0.5000021  0.0720133    0.00000       Uiso       1.00
       C22          C  0.0148839  0.5000021  0.9280560    0.00000       Uiso       1.00
       C23          C  0.4849847  0.5000021  0.5719017    0.00000       Uiso       1.00
       C24          C  0.5149482  0.5000021  0.4281676    0.00000       Uiso       1.00
       C25          C  0.9673875  0.5000021  0.9039233    0.00000       Uiso       1.00
       C26          C  0.0325454  0.5000021  0.0961460    0.00000       Uiso       1.00
       C27          C  0.4674335  0.5000021  0.4039766    0.00000       Uiso       1.00
       C28          C  0.5324994  0.5000021  0.5960926    0.00000       Uiso       1.00
       C29          C  0.0002275  0.5000021  0.1014856    0.00000       Uiso       1.00
       C30          C  0.9997054  0.5000021  0.8985837    0.00000       Uiso       1.00
       C31          C  0.5001819  0.5000021  0.6014333    0.00000       Uiso       1.00
       C32          C  0.4997511  0.5000021  0.3986360    0.00000       Uiso       1.00
        H9          H  0.9503279  0.5000021  0.8865750    0.00000       Uiso       1.00
       H10          H  0.0496050  0.5000021  0.1134943    0.00000       Uiso       1.00
       H11          H  0.4503813  0.5000021  0.3866210    0.00000       Uiso       1.00
       H12          H  0.5495515  0.5000021  0.6134483    0.00000       Uiso       1.00
       H13          H  0.9896654  0.5000021  0.1234693    0.00000       Uiso       1.00
       H14          H  0.0102675  0.5000021  0.8766000    0.00000       Uiso       1.00
       H15          H  0.4896308  0.5000021  0.6233534    0.00000       Uiso       1.00
       H16          H  0.5103021  0.5000021  0.3767158    0.00000       Uiso       1.00
       C33          C  0.4323281  0.5000021  0.4516548    0.00000       Uiso       1.00
       C34          C  0.5676048  0.5000021  0.5484145    0.00000       Uiso       1.00
       C35          C  0.9323429  0.5000021  0.9516553    0.00000       Uiso       1.00
       C36          C  0.0675900  0.5000021  0.0484140    0.00000       Uiso       1.00
       C37          C  0.4515474  0.5000021  0.5675911    0.00000       Uiso       1.00
       C38          C  0.5483855  0.5000021  0.4324782    0.00000       Uiso       1.00
       C39          C  0.9516350  0.5000021  0.0676387    0.00000       Uiso       1.00
       C40          C  0.0482979  0.5000021  0.9324306    0.00000       Uiso       1.00
       C41          C  0.4049628  0.5000021  0.4320750    0.00000       Uiso       1.00
       C42          C  0.5949701  0.5000021  0.5679943    0.00000       Uiso       1.00
       C43          C  0.9049512  0.5000021  0.9321104    0.00000       Uiso       1.00
       C44          C  0.0949817  0.5000021  0.0679588    0.00000       Uiso       1.00
       C45          C  0.4320170  0.5000021  0.5949688    0.00000       Uiso       1.00
       C46          C  0.5679159  0.5000021  0.4051005    0.00000       Uiso       1.00
       C47          C  0.9320667  0.5000021  0.0949908    0.00000       Uiso       1.00
       C48          C  0.0678662  0.5000021  0.9050785    0.00000       Uiso       1.00
       C49          C  0.8910698  0.6791975  0.9223185    0.00000       Uiso       1.00
       C50          C  0.1088631  0.6791975  0.0777508    0.00000       Uiso       1.00
       C51          C  0.1088631  0.3208068  0.0777508    0.00000       Uiso       1.00
       C52          C  0.8910698  0.3208068  0.9223185    0.00000       Uiso       1.00
       C53          C  0.3910926  0.6791978  0.4222670    0.00000       Uiso       1.00
       C54          C  0.6088403  0.6791978  0.5778023    0.00000       Uiso       1.00
       C55          C  0.6088403  0.3208066  0.5778023    0.00000       Uiso       1.00
       C56          C  0.3910926  0.3208066  0.4222670    0.00000       Uiso       1.00
       C57          C  0.9222659  0.3208069  0.1088542    0.00000       Uiso       1.00
       C58          C  0.0776669  0.3208069  0.8912151    0.00000       Uiso       1.00
       C59          C  0.0776669  0.6791974  0.8912151    0.00000       Uiso       1.00
       C60          C  0.9222659  0.6791974  0.1088542    0.00000       Uiso       1.00
       C61          C  0.4222330  0.3208067  0.6088441    0.00000       Uiso       1.00
       C62          C  0.5777000  0.3208067  0.3912252    0.00000       Uiso       1.00
       C63          C  0.5777000  0.6791977  0.3912252    0.00000       Uiso       1.00
       C64          C  0.4222330  0.6791977  0.6088441    0.00000       Uiso       1.00
       H17          H  0.4008405  0.8103210  0.4292097    0.00000       Uiso       1.00
       H18          H  0.5990924  0.8103210  0.5708596    0.00000       Uiso       1.00
       H19          H  0.5990924  0.1896834  0.5708596    0.00000       Uiso       1.00
       H20          H  0.4008405  0.1896834  0.4292097    0.00000       Uiso       1.00
       H21          H  0.9008251  0.8103200  0.9292513    0.00000       Uiso       1.00
       H22          H  0.0991077  0.8103200  0.0708179    0.00000       Uiso       1.00
       H23          H  0.0991077  0.1896844  0.0708179    0.00000       Uiso       1.00
       H24          H  0.9008251  0.1896844  0.9292513    0.00000       Uiso       1.00
       H25          H  0.4291552  0.1896834  0.5990897    0.00000       Uiso       1.00
       H26          H  0.5707777  0.1896834  0.4009795    0.00000       Uiso       1.00
       H27          H  0.5707777  0.8103210  0.4009795    0.00000       Uiso       1.00
       H28          H  0.4291552  0.8103210  0.5990897    0.00000       Uiso       1.00
       H29          H  0.9291975  0.1896845  0.0991062    0.00000       Uiso       1.00
       H30          H  0.0707353  0.1896845  0.9009631    0.00000       Uiso       1.00
       H31          H  0.0707353  0.8103199  0.9009631    0.00000       Uiso       1.00
       H32          H  0.9291975  0.8103199  0.0991062    0.00000       Uiso       1.00
       C65          C  0.3636867  0.6791823  0.4029755    0.00000       Uiso       1.00
       C66          C  0.6362462  0.6791823  0.5970938    0.00000       Uiso       1.00
       C67          C  0.6362462  0.3208221  0.5970938    0.00000       Uiso       1.00
       C68          C  0.3636867  0.3208221  0.4029755    0.00000       Uiso       1.00
       C69          C  0.8636446  0.6791825  0.9030544    0.00000       Uiso       1.00
       C70          C  0.1362883  0.6791825  0.0970149    0.00000       Uiso       1.00
       C71          C  0.1362883  0.3208219  0.0970149    0.00000       Uiso       1.00
       C72          C  0.8636446  0.3208219  0.9030544    0.00000       Uiso       1.00
       C73          C  0.4029880  0.3208222  0.6362591    0.00000       Uiso       1.00
       C74          C  0.5969448  0.3208222  0.3638102    0.00000       Uiso       1.00
       C75          C  0.5969448  0.6791822  0.3638102    0.00000       Uiso       1.00
       C76          C  0.4029880  0.6791822  0.6362591    0.00000       Uiso       1.00
       C77          C  0.9029940  0.3208220  0.1362502    0.00000       Uiso       1.00
       C78          C  0.0969389  0.3208220  0.8638190    0.00000       Uiso       1.00
       C79          C  0.0969389  0.6791824  0.8638190    0.00000       Uiso       1.00
       C80          C  0.9029940  0.6791824  0.1362502    0.00000       Uiso       1.00
       H33          H  0.3538287  0.8103840  0.3961980    0.00000       Uiso       1.00
       H34          H  0.6461042  0.8103840  0.6038713    0.00000       Uiso       1.00
       H35          H  0.6461042  0.1896204  0.6038713    0.00000       Uiso       1.00
       H36          H  0.3538287  0.1896204  0.3961980    0.00000       Uiso       1.00
       H37          H  0.8537807  0.8103858  0.8962863    0.00000       Uiso       1.00
       H38          H  0.1461522  0.8103858  0.1037830    0.00000       Uiso       1.00
       H39          H  0.1461522  0.1896186  0.1037830    0.00000       Uiso       1.00
       H40          H  0.8537807  0.1896186  0.8962863    0.00000       Uiso       1.00
       H41          H  0.3962266  0.1896205  0.6461194    0.00000       Uiso       1.00
       H42          H  0.6037063  0.1896205  0.3539499    0.00000       Uiso       1.00
       H43          H  0.6037063  0.8103839  0.3539499    0.00000       Uiso       1.00
       H44          H  0.3962266  0.8103839  0.6461194    0.00000       Uiso       1.00
       H45          H  0.8962225  0.1896186  0.1461029    0.00000       Uiso       1.00
       H46          H  0.1037104  0.1896186  0.8539664    0.00000       Uiso       1.00
       H47          H  0.1037104  0.8103858  0.8539664    0.00000       Uiso       1.00
       H48          H  0.8962225  0.8103858  0.1461029    0.00000       Uiso       1.00
       C81          C  0.3497564  0.5000021  0.3931454    0.00000       Uiso       1.00
       C82          C  0.6501765  0.5000021  0.6069239    0.00000       Uiso       1.00
       C83          C  0.8497056  0.5000021  0.8932364    0.00000       Uiso       1.00
       C84          C  0.1502273  0.5000021  0.1068328    0.00000       Uiso       1.00
       C85          C  0.3931794  0.5000021  0.6501927    0.00000       Uiso       1.00
       C86          C  0.6067535  0.5000021  0.3498766    0.00000       Uiso       1.00
       C87          C  0.8931746  0.5000021  0.1501764    0.00000       Uiso       1.00
       C88          C  0.1067583  0.5000021  0.8498930    0.00000       Uiso       1.00
       C89          C  0.7705727  0.5000021  0.2228720    0.00000       Uiso       1.00
       C90          C  0.2293602  0.5000021  0.7771974    0.00000       Uiso       1.00
       C91          C  0.7370662  0.5000021  0.2192313    0.00000       Uiso       1.00
       C92          C  0.2628667  0.5000021  0.7808381    0.00000       Uiso       1.00
       C93          C  0.7168058  0.5000021  0.2459320    0.00000       Uiso       1.00
       C94          C  0.2831270  0.5000021  0.7541373    0.00000       Uiso       1.00
       C95          C  0.7293453  0.5000021  0.2771941    0.00000       Uiso       1.00
       C96          C  0.2705876  0.5000021  0.7228752    0.00000       Uiso       1.00
       C97          C  0.7628499  0.5000021  0.2808361    0.00000       Uiso       1.00
       C98          C  0.2370830  0.5000021  0.7192332    0.00000       Uiso       1.00
       C99          C  0.7831103  0.5000021  0.2541362    0.00000       Uiso       1.00
      C100          C  0.2168226  0.5000021  0.7459331    0.00000       Uiso       1.00
      C101          C  0.7904298  0.5000021  0.1958249    0.00000       Uiso       1.00
      C102          C  0.2095032  0.5000021  0.8042444    0.00000       Uiso       1.00
       H49          H  0.7270052  0.5000021  0.1970321    0.00000       Uiso       1.00
       H50          H  0.2729277  0.5000021  0.8030372    0.00000       Uiso       1.00
       H51          H  0.6926406  0.5000021  0.2423537    0.00000       Uiso       1.00
       H52          H  0.3072923  0.5000021  0.7577156    0.00000       Uiso       1.00
      C103          C  0.7094847  0.5000021  0.3042367    0.00000       Uiso       1.00
      C104          C  0.2904482  0.5000021  0.6958326    0.00000       Uiso       1.00
       H53          H  0.7729090  0.5000021  0.3030359    0.00000       Uiso       1.00
       H54          H  0.2270238  0.5000021  0.6970334    0.00000       Uiso       1.00
       H55          H  0.8072726  0.5000021  0.2577264    0.00000       Uiso       1.00
       H56          H  0.1926603  0.5000021  0.7423429    0.00000       Uiso       1.00
        N5          N  0.8224690  0.5000021  0.1981719    0.00000       Uiso       1.00
        N6          N  0.1774639  0.5000021  0.8018974    0.00000       Uiso       1.00
        N7          N  0.6774491  0.5000021  0.3018714    0.00000       Uiso       1.00
        N8          N  0.3224837  0.5000021  0.6981978    0.00000       Uiso       1.00
        N9          N  0.8419200  0.5000021  0.1741504    0.00000       Uiso       1.00
       N10          N  0.1580129  0.5000021  0.8259189    0.00000       Uiso       1.00
       N11          N  0.6579955  0.5000021  0.3258879    0.00000       Uiso       1.00
       N12          N  0.3419373  0.5000021  0.6741813    0.00000       Uiso       1.00
       H57          H  0.8334016  0.5000021  0.1527638    0.00000       Uiso       1.00
       H58          H  0.1665313  0.5000021  0.8473055    0.00000       Uiso       1.00
      C105          C  0.8739287  0.5000021  0.1774516    0.00000       Uiso       1.00
      C106          C  0.1260042  0.5000021  0.8226177    0.00000       Uiso       1.00
      C107          C  0.6259862  0.5000021  0.3225920    0.00000       Uiso       1.00
      C108          C  0.3739467  0.5000021  0.6774773    0.00000       Uiso       1.00
        O1          O  0.8870199  0.5000021  0.2042315    0.00000       Uiso       1.00
        O2          O  0.1129130  0.5000021  0.7958378    0.00000       Uiso       1.00
       H59          H  0.6665108  0.5000021  0.3472739    0.00000       Uiso       1.00
       H60          H  0.3334222  0.5000021  0.6527954    0.00000       Uiso       1.00
        O3          O  0.6128832  0.5000021  0.2958175    0.00000       Uiso       1.00
        O4          O  0.3870497  0.5000021  0.7042518    0.00000       Uiso       1.00
       H61          H  0.7194515  0.5000021  0.3264617    0.00000       Uiso       1.00
       H62          H  0.2804813  0.5000021  0.6736075    0.00000       Uiso       1.00
      C109          C  0.2228691  0.5000021  0.2293403    0.00000       Uiso       1.00
      C110          C  0.7770638  0.5000021  0.7707290    0.00000       Uiso       1.00
      C111          C  0.2191644  0.5000021  0.2627857    0.00000       Uiso       1.00
      C112          C  0.7807685  0.5000021  0.7372836    0.00000       Uiso       1.00
      C113          C  0.2458734  0.5000021  0.2830607    0.00000       Uiso       1.00
      C114          C  0.7540595  0.5000021  0.7170086    0.00000       Uiso       1.00
      C115          C  0.2772081  0.5000021  0.2705978    0.00000       Uiso       1.00
      C116          C  0.7227248  0.5000021  0.7294715    0.00000       Uiso       1.00
      C117          C  0.2809141  0.5000021  0.2371542    0.00000       Uiso       1.00
      C118          C  0.7190188  0.5000021  0.7629151    0.00000       Uiso       1.00
      C119          C  0.2542058  0.5000021  0.2168788    0.00000       Uiso       1.00
      C120          C  0.7457271  0.5000021  0.7831905    0.00000       Uiso       1.00
      C121          C  0.1958116  0.5000021  0.2094685    0.00000       Uiso       1.00
      C122          C  0.8041213  0.5000021  0.7906008    0.00000       Uiso       1.00
       H63          H  0.1969118  0.5000021  0.2727909    0.00000       Uiso       1.00
       H64          H  0.8030211  0.5000021  0.7272784    0.00000       Uiso       1.00
       H65          H  0.2422468  0.5000021  0.3071802    0.00000       Uiso       1.00
       H66          H  0.7576861  0.5000021  0.6928891    0.00000       Uiso       1.00
      C123          C  0.3042594  0.5000021  0.2904759    0.00000       Uiso       1.00
      C124          C  0.6956735  0.5000021  0.7095934    0.00000       Uiso       1.00
       H67          H  0.3031676  0.5000021  0.2271513    0.00000       Uiso       1.00
       H68          H  0.6967653  0.5000021  0.7729179    0.00000       Uiso       1.00
       H69          H  0.2578432  0.5000021  0.1927622    0.00000       Uiso       1.00
       H70          H  0.7420897  0.5000021  0.8073071    0.00000       Uiso       1.00
       N13          N  0.1982135  0.5000021  0.1774851    0.00000       Uiso       1.00
       N14          N  0.8017193  0.5000021  0.8225842    0.00000       Uiso       1.00
       N15          N  0.3018302  0.5000021  0.3224547    0.00000       Uiso       1.00
       N16          N  0.6981027  0.5000021  0.6776146    0.00000       Uiso       1.00
       N17          N  0.1741796  0.5000021  0.1580313    0.00000       Uiso       1.00
       N18          N  0.8257533  0.5000021  0.8420380    0.00000       Uiso       1.00
       N19          N  0.3258452  0.5000021  0.3419280    0.00000       Uiso       1.00
       N20          N  0.6740877  0.5000021  0.6581413    0.00000       Uiso       1.00
       H71          H  0.1527468  0.5000021  0.1665066    0.00000       Uiso       1.00
       H72          H  0.8471861  0.5000021  0.8335627    0.00000       Uiso       1.00
      C125          C  0.1775256  0.5000021  0.1260792    0.00000       Uiso       1.00
      C126          C  0.8224072  0.5000021  0.8739902    0.00000       Uiso       1.00
      C127          C  0.3224732  0.5000021  0.3738778    0.00000       Uiso       1.00
      C128          C  0.6774597  0.5000021  0.6261916    0.00000       Uiso       1.00
        O5          O  0.2043644  0.5000021  0.1130422    0.00000       Uiso       1.00
        O6          O  0.7955685  0.5000021  0.8870270    0.00000       Uiso       1.00
       H73          H  0.3472844  0.5000021  0.3334737    0.00000       Uiso       1.00
       H74          H  0.6526485  0.5000021  0.6665955    0.00000       Uiso       1.00
        O7          O  0.2956256  0.5000021  0.3868979    0.00000       Uiso       1.00
        O8          O  0.7043073  0.5000021  0.6131714    0.00000       Uiso       1.00
       H75          H  0.3265389  0.5000021  0.2805673    0.00000       Uiso       1.00
       H76          H  0.6733940  0.5000021  0.7195019    0.00000       Uiso       1.00
       H77          H  0.7804560  0.5000021  0.1736020    0.00000       Uiso       1.00
       H78          H  0.1735362  0.5000021  0.2193885    0.00000       Uiso       1.00
       H79          H  0.2194768  0.5000021  0.8264673    0.00000       Uiso       1.00
       H80          H  0.8263967  0.5000021  0.7806808    0.00000       Uiso       1.00
