data_CPF-2
_audit_creation_date              0000-00-00
_audit_creation_method            'LanYouShi'
_symmetry_space_group_name_H-M    'P1'
_cell_length_a                    28.9773998
_cell_length_b                    6.8442001
_cell_length_c                    28.9745007
_cell_angle_alpha                 90.0000000
_cell_angle_beta                  89.8547974
_cell_angle_gamma                 90.0000000
loop_
_atom_site_label
_atom_site_type_symbol
_atom_site_fract_x
_atom_site_fract_y
_atom_site_fract_z
_atom_site_U_iso_or_equiv
_atom_site_adp_type
_atom_site_occupancy
        N1          N  0.9403167  0.4999982  0.0435633    0.00000       Uiso       1.00
        N1          N  0.0596841  0.4999982  0.9564362    0.00000       Uiso       1.00
       H13          H  0.9673900  0.4999982  0.0237971    0.00000       Uiso       1.00
       H13          H  0.0326108  0.4999982  0.9762023    0.00000       Uiso       1.00
        C1          C  0.9420693  0.4999982  0.0901364    0.00000       Uiso       1.00
        C2          C  0.0579315  0.4999982  0.9098631    0.00000       Uiso       1.00
        C3          C  0.8965442  0.4999982  0.0276696    0.00000       Uiso       1.00
        C4          C  0.1034567  0.4999982  0.9723299    0.00000       Uiso       1.00
        C5          C  0.8962528  0.4999982  0.1051310    0.00000       Uiso       1.00
        C6          C  0.1037481  0.4999982  0.8948684    0.00000       Uiso       1.00
        C7          C  0.8682747  0.4999982  0.0667378    0.00000       Uiso       1.00
        C8          C  0.1317261  0.4999982  0.9332617    0.00000       Uiso       1.00
        H1          H  0.8847885  0.4999982  0.1385231    0.00000       Uiso       1.00
        H2          H  0.1152123  0.4999982  0.8614764    0.00000       Uiso       1.00
        H3          H  0.8330184  0.4999982  0.0674663    0.00000       Uiso       1.00
        H4          H  0.1669825  0.4999982  0.9325331    0.00000       Uiso       1.00
        N1          N  0.0427168  0.4999982  0.0586267    0.00000       Uiso       1.00
        N2          N  0.9572840  0.4999982  0.9413728    0.00000       Uiso       1.00
        C9          C  0.0273416  0.4999982  0.1028807    0.00000       Uiso       1.00
       C10          C  0.9726592  0.4999982  0.8971187    0.00000       Uiso       1.00
       C11          C  0.9104871  0.4999982  0.9425071    0.00000       Uiso       1.00
       C12          C  0.0895137  0.4999982  0.0574923    0.00000       Uiso       1.00
       C13          C  0.0662114  0.4999982  0.1312237    0.00000       Uiso       1.00
       C14          C  0.9337894  0.4999982  0.8687757    0.00000       Uiso       1.00
       C15          C  0.8954173  0.4999982  0.8967872    0.00000       Uiso       1.00
       C16          C  0.1045836  0.4999982  0.1032123    0.00000       Uiso       1.00
        H5          H  0.0668206  0.4999982  0.1664955    0.00000       Uiso       1.00
        H6          H  0.9331803  0.4999982  0.8335040    0.00000       Uiso       1.00
        H7          H  0.8620352  0.4999982  0.8854271    0.00000       Uiso       1.00
        H8          H  0.1379656  0.4999982  0.1145724    0.00000       Uiso       1.00
       C17          C  0.9812515  0.4999982  0.1191160    0.00000       Uiso       1.00
       C18          C  0.0187493  0.4999982  0.8808834    0.00000       Uiso       1.00
       C19          C  0.8809508  0.4999982  0.9814827    0.00000       Uiso       1.00
       C20          C  0.1190500  0.4999982  0.0185167    0.00000       Uiso       1.00
       C21          C  0.9736457  0.4999982  0.1673095    0.00000       Uiso       1.00
       C22          C  0.0263551  0.4999982  0.8326899    0.00000       Uiso       1.00
       C23          C  0.8328046  0.4999982  0.9738526    0.00000       Uiso       1.00
       C24          C  0.1671962  0.4999982  0.0261469    0.00000       Uiso       1.00
       C25          C  0.9696123  0.3219122  0.1916074    0.00000       Uiso       1.00
       C26          C  0.0303885  0.3219122  0.8083920    0.00000       Uiso       1.00
       C27          C  0.0303885  0.6780842  0.8083920    0.00000       Uiso       1.00
       C28          C  0.9696123  0.6780842  0.1916074    0.00000       Uiso       1.00
       C29          C  0.8085321  0.6780841  0.9698043    0.00000       Uiso       1.00
       C30          C  0.1914687  0.6780841  0.0301951    0.00000       Uiso       1.00
       C31          C  0.1914687  0.3219122  0.0301951    0.00000       Uiso       1.00
       C32          C  0.8085321  0.3219122  0.9698043    0.00000       Uiso       1.00
        H9          H  0.9724397  0.1915687  0.1744914    0.00000       Uiso       1.00
       H10          H  0.0275611  0.1915687  0.8255080    0.00000       Uiso       1.00
       H11          H  0.0275611  0.8084277  0.8255080    0.00000       Uiso       1.00
       H12          H  0.9724397  0.8084277  0.1744914    0.00000       Uiso       1.00
       H13          H  0.8256287  0.8084276  0.9726520    0.00000       Uiso       1.00
       H14          H  0.1743721  0.8084276  0.0273475    0.00000       Uiso       1.00
       H15          H  0.1743721  0.1915687  0.0273475    0.00000       Uiso       1.00
       H16          H  0.8256287  0.1915687  0.9726520    0.00000       Uiso       1.00
       C33          C  0.9614168  0.3219109  0.2395077    0.00000       Uiso       1.00
       C34          C  0.0385840  0.3219109  0.7604918    0.00000       Uiso       1.00
       C35          C  0.0385840  0.6780854  0.7604918    0.00000       Uiso       1.00
       C36          C  0.9614168  0.6780854  0.2395077    0.00000       Uiso       1.00
       C37          C  0.7606844  0.6780854  0.9615725    0.00000       Uiso       1.00
       C38          C  0.2393165  0.6780854  0.0384270    0.00000       Uiso       1.00
       C39          C  0.2393165  0.3219110  0.0384270    0.00000       Uiso       1.00
       C40          C  0.7606844  0.3219110  0.9615725    0.00000       Uiso       1.00
       H17          H  0.9582791  0.1914513  0.2565548    0.00000       Uiso       1.00
       H18          H  0.0417217  0.1914513  0.7434447    0.00000       Uiso       1.00
       H19          H  0.0417217  0.8085451  0.7434447    0.00000       Uiso       1.00
       H20          H  0.9582791  0.8085451  0.2565548    0.00000       Uiso       1.00
       H21          H  0.7436569  0.8085451  0.9584234    0.00000       Uiso       1.00
       H22          H  0.2563439  0.8085451  0.0415761    0.00000       Uiso       1.00
       H23          H  0.2563439  0.1914513  0.0415761    0.00000       Uiso       1.00
       H24          H  0.7436569  0.1914513  0.9584234    0.00000       Uiso       1.00
       C41          C  0.9572202  0.4999982  0.2638607    0.00000       Uiso       1.00
       C42          C  0.0427806  0.4999982  0.7361388    0.00000       Uiso       1.00
       C43          C  0.7363582  0.4999982  0.9573568    0.00000       Uiso       1.00
       C44          C  0.2636426  0.4999982  0.0426427    0.00000       Uiso       1.00
       C45          C  0.5346330  0.4999982  0.0057644    0.00000       Uiso       1.00
       C46          C  0.4653678  0.4999982  0.9942350    0.00000       Uiso       1.00
       C47          C  0.4943220  0.4999982  0.0340911    0.00000       Uiso       1.00
       C48          C  0.5056788  0.4999982  0.9659084    0.00000       Uiso       1.00
       C49          C  0.5842543  0.4999982  0.0148802    0.00000       Uiso       1.00
       C50          C  0.4157465  0.4999982  0.9851192    0.00000       Uiso       1.00
        O1          O  0.4880745  0.4999982  0.0756721    0.00000       Uiso       1.00
        O2          O  0.5119263  0.4999982  0.9243274    0.00000       Uiso       1.00
        N3          N  0.6144629  0.4999982  0.9795770    0.00000       Uiso       1.00
        N4          N  0.3855380  0.4999982  0.0204224    0.00000       Uiso       1.00
        N5          N  0.6589761  0.4999982  0.9847891    0.00000       Uiso       1.00
        N6          N  0.3410248  0.4999982  0.0152104    0.00000       Uiso       1.00
       H25          H  0.6717976  0.4999982  0.0156007    0.00000       Uiso       1.00
       H26          H  0.3282033  0.4999982  0.9843988    0.00000       Uiso       1.00
       C51          C  0.6887308  0.4999982  0.9488660    0.00000       Uiso       1.00
       C52          C  0.3112700  0.4999982  0.0511335    0.00000       Uiso       1.00
        O3          O  0.6751595  0.4999982  0.9078943    0.00000       Uiso       1.00
        O4          O  0.3248414  0.4999982  0.0921052    0.00000       Uiso       1.00
       H27          H  0.4044361  0.4999982  0.9517069    0.00000       Uiso       1.00
       H28          H  0.5955647  0.4999982  0.0482925    0.00000       Uiso       1.00
       C53          C  0.9942561  0.4999982  0.5346677    0.00000       Uiso       1.00
       C54          C  0.0057447  0.4999982  0.4653318    0.00000       Uiso       1.00
       C55          C  0.9659106  0.4999982  0.4945116    0.00000       Uiso       1.00
       C56          C  0.0340902  0.4999982  0.5054879    0.00000       Uiso       1.00
       C57          C  0.9851690  0.4999982  0.5843452    0.00000       Uiso       1.00
       C58          C  0.0148318  0.4999982  0.4156542    0.00000       Uiso       1.00
        O5          O  0.9243306  0.4999982  0.4884963    0.00000       Uiso       1.00
        O6          O  0.0756702  0.4999982  0.5115032    0.00000       Uiso       1.00
        N7          N  0.0204841  0.4999982  0.6143581    0.00000       Uiso       1.00
        N8          N  0.9795168  0.4999982  0.3856414    0.00000       Uiso       1.00
        N9          N  0.0153002  0.4999982  0.6589053    0.00000       Uiso       1.00
       N10          N  0.9847006  0.4999982  0.3410942    0.00000       Uiso       1.00
       H29          H  0.9845020  0.4999982  0.6719030    0.00000       Uiso       1.00
       H30          H  0.0154988  0.4999982  0.3280965    0.00000       Uiso       1.00
       C59          C  0.0512385  0.4999982  0.6884580    0.00000       Uiso       1.00
       C60          C  0.9487623  0.4999982  0.3115414    0.00000       Uiso       1.00
        O7          O  0.0921975  0.4999982  0.6746517    0.00000       Uiso       1.00
        O8          O  0.9078034  0.4999982  0.3253478    0.00000       Uiso       1.00
       H31          H  0.0482342  0.4999982  0.4041540    0.00000       Uiso       1.00
       H32          H  0.9517666  0.4999982  0.5958454    0.00000       Uiso       1.00
