data_3D-Py-COF-2P
_audit_creation_date              0000-00-00
_audit_creation_method            'LanYouShi'
_symmetry_space_group_name_H-M    'P1'
_cell_length_a                    24.8910007
_cell_length_b                    27.1821995
_cell_length_c                    32.5284004
_cell_angle_alpha                 90.0000000
_cell_angle_beta                  90.0000000
_cell_angle_gamma                 90.0000000
loop_
_atom_site_label
_atom_site_type_symbol
_atom_site_fract_x
_atom_site_fract_y
_atom_site_fract_z
_atom_site_U_iso_or_equiv
_atom_site_adp_type
_atom_site_occupancy
        H1          H  0.5000000  0.7703100  0.5914200    0.00000       Uiso       1.00
        H2          H  0.5000000  0.5981500  0.6342400    0.00000       Uiso       1.00
        H3          H  0.5000000  0.6584100  0.6836700    0.00000       Uiso       1.00
        H4          H  0.5000000  0.7504700  0.7059200    0.00000       Uiso       1.00
        H5          H  0.5000000  0.8856400  0.6217300    0.00000       Uiso       1.00
        H6          H  0.5000000  0.9650601  0.6467700    0.00000       Uiso       1.00
        H7          H  0.5000000  0.9105000  0.7719399    0.00000       Uiso       1.00
        H8          H  0.5000000  0.1734800  0.7434600    0.00000       Uiso       1.00
        C1          C  0.5000000  0.5536500  0.4616800    0.00000       Uiso       1.00
        C2          C  0.5000000  0.6068200  0.4606600    0.00000       Uiso       1.00
        C3          C  0.5000000  0.6443500  0.4227700    0.00000       Uiso       1.00
        C4          C  0.5000000  0.7319500  0.3994300    0.00000       Uiso       1.00
        C5          C  0.5000000  0.7192800  0.3581300    0.00000       Uiso       1.00
        C6          C  0.5000000  0.7589201  0.3265900    0.00000       Uiso       1.00
        N1          N  0.5000000  0.8039900  0.3398300    0.00000       Uiso       1.00
        C7          C  0.5000000  0.8507000  0.3196800    0.00000       Uiso       1.00
        C8          C  0.5000000  0.8577200  0.2771300    0.00000       Uiso       1.00
        C9          C  0.5000000  0.8913300  0.3452900    0.00000       Uiso       1.00
       C10          C  0.5000000  0.9059501  0.2611400    0.00000       Uiso       1.00
       C11          C  0.5000000  0.9388800  0.3297300    0.00000       Uiso       1.00
       C12          C  0.5000000  0.9483600  0.2870400    0.00000       Uiso       1.00
       C13          C  0.5000000  0.3033800  0.4301400    0.00000       Uiso       1.00
       C14          C  0.5000000  0.3305300  0.3483300    0.00000       Uiso       1.00
       C15          C  0.5000000  0.5252400  0.5737000    0.00000       Uiso       1.00
        H9          H  0.5000000  0.7150400  0.5408700    0.00000       Uiso       1.00
       C16          C  0.5000000  0.6331400  0.3794500    0.00000       Uiso       1.00
       H10          H  0.5000000  0.4606000  0.6032500    0.00000       Uiso       1.00
       H11          H  0.0000000  0.2703100  0.5914200    0.00000       Uiso       1.00
       H12          H  0.0000000  0.0981500  0.6342400    0.00000       Uiso       1.00
       H13          H  0.0000000  0.1584100  0.6836700    0.00000       Uiso       1.00
       H14          H  0.0000000  0.2504700  0.7059200    0.00000       Uiso       1.00
       H15          H  0.0000000  0.3856400  0.6217300    0.00000       Uiso       1.00
       H16          H  0.0000000  0.4650600  0.6467700    0.00000       Uiso       1.00
       H17          H  0.0000000  0.4105000  0.7719399    0.00000       Uiso       1.00
       H18          H  0.0000000  0.6734800  0.7434600    0.00000       Uiso       1.00
       C17          C  0.0000000  0.0536500  0.4616800    0.00000       Uiso       1.00
       C18          C  0.0000000  0.1068200  0.4606600    0.00000       Uiso       1.00
       C19          C  0.0000000  0.1443500  0.4227700    0.00000       Uiso       1.00
       C20          C  0.0000000  0.2319500  0.3994300    0.00000       Uiso       1.00
       C21          C  0.0000000  0.2192800  0.3581300    0.00000       Uiso       1.00
       C22          C  0.0000000  0.2589200  0.3265900    0.00000       Uiso       1.00
        N2          N  0.0000000  0.3039900  0.3398300    0.00000       Uiso       1.00
       C23          C  0.0000000  0.3507000  0.3196800    0.00000       Uiso       1.00
       C24          C  0.0000000  0.3577200  0.2771300    0.00000       Uiso       1.00
       C25          C  0.0000000  0.3913300  0.3452900    0.00000       Uiso       1.00
       C26          C  0.0000000  0.4059500  0.2611400    0.00000       Uiso       1.00
       C27          C  0.0000000  0.4388800  0.3297300    0.00000       Uiso       1.00
       C28          C  0.0000000  0.4483601  0.2870400    0.00000       Uiso       1.00
       C29          C  0.0000000  0.8033801  0.4301400    0.00000       Uiso       1.00
       C30          C  0.0000000  0.8305300  0.3483300    0.00000       Uiso       1.00
       C31          C  0.0000000  0.0252400  0.5737000    0.00000       Uiso       1.00
       H19          H  0.0000000  0.2150400  0.5408700    0.00000       Uiso       1.00
       C32          C  0.0000000  0.1331400  0.3794500    0.00000       Uiso       1.00
       H20          H  0.0000000  0.9606000  0.6032500    0.00000       Uiso       1.00
       H21          H  0.5000000  0.2296900  0.5914200    0.00000       Uiso       1.00
       H22          H  0.5000000  0.4018500  0.6342400    0.00000       Uiso       1.00
       H23          H  0.5000000  0.3415900  0.6836700    0.00000       Uiso       1.00
       H24          H  0.5000000  0.2495300  0.7059200    0.00000       Uiso       1.00
       H25          H  0.5000000  0.1143600  0.6217300    0.00000       Uiso       1.00
       H26          H  0.5000000  0.0349400  0.6467700    0.00000       Uiso       1.00
       H27          H  0.5000000  0.0895000  0.7719399    0.00000       Uiso       1.00
       H28          H  0.5000000  0.8265200  0.7434600    0.00000       Uiso       1.00
       C33          C  0.5000000  0.4463500  0.4616800    0.00000       Uiso       1.00
       C34          C  0.5000000  0.3931800  0.4606600    0.00000       Uiso       1.00
       C35          C  0.5000000  0.3556500  0.4227700    0.00000       Uiso       1.00
       C36          C  0.5000000  0.2680500  0.3994300    0.00000       Uiso       1.00
       C37          C  0.5000000  0.2807200  0.3581300    0.00000       Uiso       1.00
       C38          C  0.5000000  0.2410800  0.3265900    0.00000       Uiso       1.00
        N3          N  0.5000000  0.1960100  0.3398300    0.00000       Uiso       1.00
       C39          C  0.5000000  0.1493000  0.3196800    0.00000       Uiso       1.00
       C40          C  0.5000000  0.1422800  0.2771300    0.00000       Uiso       1.00
       C41          C  0.5000000  0.1086700  0.3452900    0.00000       Uiso       1.00
       C42          C  0.5000000  0.0940500  0.2611400    0.00000       Uiso       1.00
       C43          C  0.5000000  0.0611200  0.3297300    0.00000       Uiso       1.00
       C44          C  0.5000000  0.0516400  0.2870400    0.00000       Uiso       1.00
       C45          C  0.5000000  0.6966200  0.4301400    0.00000       Uiso       1.00
       C46          C  0.5000000  0.6694700  0.3483300    0.00000       Uiso       1.00
       C47          C  0.5000000  0.4747600  0.5737000    0.00000       Uiso       1.00
       H29          H  0.5000000  0.2849600  0.5408700    0.00000       Uiso       1.00
       C48          C  0.5000000  0.3668600  0.3794500    0.00000       Uiso       1.00
       H30          H  0.5000000  0.5394000  0.6032500    0.00000       Uiso       1.00
       H31          H  0.0000000  0.7296900  0.5914200    0.00000       Uiso       1.00
       H32          H  0.0000000  0.9018500  0.6342400    0.00000       Uiso       1.00
       H33          H  0.0000000  0.8415900  0.6836700    0.00000       Uiso       1.00
       H34          H  0.0000000  0.7495300  0.7059200    0.00000       Uiso       1.00
       H35          H  0.0000000  0.6143600  0.6217300    0.00000       Uiso       1.00
       H36          H  0.0000000  0.5349400  0.6467700    0.00000       Uiso       1.00
       H37          H  0.0000000  0.5895000  0.7719399    0.00000       Uiso       1.00
       H38          H  0.0000000  0.3265200  0.7434600    0.00000       Uiso       1.00
       C49          C  0.0000000  0.9463500  0.4616800    0.00000       Uiso       1.00
       C50          C  0.0000000  0.8931800  0.4606600    0.00000       Uiso       1.00
       C51          C  0.0000000  0.8556500  0.4227700    0.00000       Uiso       1.00
       C52          C  0.0000000  0.7680500  0.3994300    0.00000       Uiso       1.00
       C53          C  0.0000000  0.7807200  0.3581300    0.00000       Uiso       1.00
       C54          C  0.0000000  0.7410800  0.3265900    0.00000       Uiso       1.00
        N4          N  0.0000000  0.6960100  0.3398300    0.00000       Uiso       1.00
       C55          C  0.0000000  0.6493000  0.3196800    0.00000       Uiso       1.00
       C56          C  0.0000000  0.6422800  0.2771300    0.00000       Uiso       1.00
       C57          C  0.0000000  0.6086700  0.3452900    0.00000       Uiso       1.00
       C58          C  0.0000000  0.5940500  0.2611400    0.00000       Uiso       1.00
       C59          C  0.0000000  0.5611200  0.3297300    0.00000       Uiso       1.00
       C60          C  0.0000000  0.5516400  0.2870400    0.00000       Uiso       1.00
       C61          C  0.0000000  0.1966200  0.4301400    0.00000       Uiso       1.00
       C62          C  0.0000000  0.1694700  0.3483300    0.00000       Uiso       1.00
       C63          C  0.0000000  0.9747600  0.5737000    0.00000       Uiso       1.00
       H39          H  0.0000000  0.7849600  0.5408700    0.00000       Uiso       1.00
       C64          C  0.0000000  0.8668600  0.3794500    0.00000       Uiso       1.00
       H40          H  0.0000000  0.0394000  0.6032500    0.00000       Uiso       1.00
       H41          H  0.5000000  0.7703100  0.4085800    0.00000       Uiso       1.00
       H42          H  0.5000000  0.5981500  0.3657600    0.00000       Uiso       1.00
       H43          H  0.5000000  0.6584100  0.3163300    0.00000       Uiso       1.00
       H44          H  0.5000000  0.7504700  0.2940800    0.00000       Uiso       1.00
       H45          H  0.5000000  0.8856400  0.3782700    0.00000       Uiso       1.00
       H46          H  0.5000000  0.9650601  0.3532300    0.00000       Uiso       1.00
       H47          H  0.5000000  0.9105000  0.2280600    0.00000       Uiso       1.00
       H48          H  0.5000000  0.1734800  0.2565400    0.00000       Uiso       1.00
       C65          C  0.5000000  0.5536500  0.5383200    0.00000       Uiso       1.00
       C66          C  0.5000000  0.6068200  0.5393400    0.00000       Uiso       1.00
       C67          C  0.5000000  0.6443500  0.5772300    0.00000       Uiso       1.00
       C68          C  0.5000000  0.7319500  0.6005700    0.00000       Uiso       1.00
       C69          C  0.5000000  0.7192800  0.6418700    0.00000       Uiso       1.00
       C70          C  0.5000000  0.7589201  0.6734100    0.00000       Uiso       1.00
        N5          N  0.5000000  0.8039900  0.6601700    0.00000       Uiso       1.00
       C71          C  0.5000000  0.8507000  0.6803200    0.00000       Uiso       1.00
       C72          C  0.5000000  0.8577200  0.7228699    0.00000       Uiso       1.00
       C73          C  0.5000000  0.8913300  0.6547100    0.00000       Uiso       1.00
       C74          C  0.5000000  0.9059501  0.7388600    0.00000       Uiso       1.00
       C75          C  0.5000000  0.9388800  0.6702700    0.00000       Uiso       1.00
       C76          C  0.5000000  0.9483600  0.7129600    0.00000       Uiso       1.00
       C77          C  0.5000000  0.3033800  0.5698600    0.00000       Uiso       1.00
       C78          C  0.5000000  0.3305300  0.6516700    0.00000       Uiso       1.00
       C79          C  0.5000000  0.5252400  0.4263000    0.00000       Uiso       1.00
       H49          H  0.5000000  0.7150400  0.4591300    0.00000       Uiso       1.00
       C80          C  0.5000000  0.6331400  0.6205500    0.00000       Uiso       1.00
       H50          H  0.5000000  0.4606000  0.3967500    0.00000       Uiso       1.00
       H51          H  0.0000000  0.2703100  0.4085800    0.00000       Uiso       1.00
       H52          H  0.0000000  0.0981500  0.3657600    0.00000       Uiso       1.00
       H53          H  0.0000000  0.1584100  0.3163300    0.00000       Uiso       1.00
       H54          H  0.0000000  0.2504700  0.2940800    0.00000       Uiso       1.00
       H55          H  0.0000000  0.3856400  0.3782700    0.00000       Uiso       1.00
       H56          H  0.0000000  0.4650600  0.3532300    0.00000       Uiso       1.00
       H57          H  0.0000000  0.4105000  0.2280600    0.00000       Uiso       1.00
       H58          H  0.0000000  0.6734800  0.2565400    0.00000       Uiso       1.00
       C81          C  0.0000000  0.0536500  0.5383200    0.00000       Uiso       1.00
       C82          C  0.0000000  0.1068200  0.5393400    0.00000       Uiso       1.00
       C83          C  0.0000000  0.1443500  0.5772300    0.00000       Uiso       1.00
       C84          C  0.0000000  0.2319500  0.6005700    0.00000       Uiso       1.00
       C85          C  0.0000000  0.2192800  0.6418700    0.00000       Uiso       1.00
       C86          C  0.0000000  0.2589200  0.6734100    0.00000       Uiso       1.00
        N6          N  0.0000000  0.3039900  0.6601700    0.00000       Uiso       1.00
       C87          C  0.0000000  0.3507000  0.6803200    0.00000       Uiso       1.00
       C88          C  0.0000000  0.3577200  0.7228699    0.00000       Uiso       1.00
       C89          C  0.0000000  0.3913300  0.6547100    0.00000       Uiso       1.00
       C90          C  0.0000000  0.4059500  0.7388600    0.00000       Uiso       1.00
       C91          C  0.0000000  0.4388800  0.6702700    0.00000       Uiso       1.00
       C92          C  0.0000000  0.4483601  0.7129600    0.00000       Uiso       1.00
       C93          C  0.0000000  0.8033801  0.5698600    0.00000       Uiso       1.00
       C94          C  0.0000000  0.8305300  0.6516700    0.00000       Uiso       1.00
       C95          C  0.0000000  0.0252400  0.4263000    0.00000       Uiso       1.00
       H59          H  0.0000000  0.2150400  0.4591300    0.00000       Uiso       1.00
       C96          C  0.0000000  0.1331400  0.6205500    0.00000       Uiso       1.00
       H60          H  0.0000000  0.9606000  0.3967500    0.00000       Uiso       1.00
       H61          H  0.5000000  0.2296900  0.4085800    0.00000       Uiso       1.00
       H62          H  0.5000000  0.4018500  0.3657600    0.00000       Uiso       1.00
       H63          H  0.5000000  0.3415900  0.3163300    0.00000       Uiso       1.00
       H64          H  0.5000000  0.2495300  0.2940800    0.00000       Uiso       1.00
       H65          H  0.5000000  0.1143600  0.3782700    0.00000       Uiso       1.00
       H66          H  0.5000000  0.0349400  0.3532300    0.00000       Uiso       1.00
       H67          H  0.5000000  0.0895000  0.2280600    0.00000       Uiso       1.00
       H68          H  0.5000000  0.8265200  0.2565400    0.00000       Uiso       1.00
       C97          C  0.5000000  0.4463500  0.5383200    0.00000       Uiso       1.00
       C98          C  0.5000000  0.3931800  0.5393400    0.00000       Uiso       1.00
       C99          C  0.5000000  0.3556500  0.5772300    0.00000       Uiso       1.00
      C100          C  0.5000000  0.2680500  0.6005700    0.00000       Uiso       1.00
      C101          C  0.5000000  0.2807200  0.6418700    0.00000       Uiso       1.00
      C102          C  0.5000000  0.2410800  0.6734100    0.00000       Uiso       1.00
        N7          N  0.5000000  0.1960100  0.6601700    0.00000       Uiso       1.00
      C103          C  0.5000000  0.1493000  0.6803200    0.00000       Uiso       1.00
      C104          C  0.5000000  0.1422800  0.7228699    0.00000       Uiso       1.00
      C105          C  0.5000000  0.1086700  0.6547100    0.00000       Uiso       1.00
      C106          C  0.5000000  0.0940500  0.7388600    0.00000       Uiso       1.00
      C107          C  0.5000000  0.0611200  0.6702700    0.00000       Uiso       1.00
      C108          C  0.5000000  0.0516400  0.7129600    0.00000       Uiso       1.00
      C109          C  0.5000000  0.6966200  0.5698600    0.00000       Uiso       1.00
      C110          C  0.5000000  0.6694700  0.6516700    0.00000       Uiso       1.00
      C111          C  0.5000000  0.4747600  0.4263000    0.00000       Uiso       1.00
       H69          H  0.5000000  0.2849600  0.4591300    0.00000       Uiso       1.00
      C112          C  0.5000000  0.3668600  0.6205500    0.00000       Uiso       1.00
       H70          H  0.5000000  0.5394000  0.3967500    0.00000       Uiso       1.00
       H71          H  0.0000000  0.7296900  0.4085800    0.00000       Uiso       1.00
       H72          H  0.0000000  0.9018500  0.3657600    0.00000       Uiso       1.00
       H73          H  0.0000000  0.8415900  0.3163300    0.00000       Uiso       1.00
       H74          H  0.0000000  0.7495300  0.2940800    0.00000       Uiso       1.00
       H75          H  0.0000000  0.6143600  0.3782700    0.00000       Uiso       1.00
       H76          H  0.0000000  0.5349400  0.3532300    0.00000       Uiso       1.00
       H77          H  0.0000000  0.5895000  0.2280600    0.00000       Uiso       1.00
       H78          H  0.0000000  0.3265200  0.2565400    0.00000       Uiso       1.00
      C113          C  0.0000000  0.9463500  0.5383200    0.00000       Uiso       1.00
      C114          C  0.0000000  0.8931800  0.5393400    0.00000       Uiso       1.00
      C115          C  0.0000000  0.8556500  0.5772300    0.00000       Uiso       1.00
      C116          C  0.0000000  0.7680500  0.6005700    0.00000       Uiso       1.00
      C117          C  0.0000000  0.7807200  0.6418700    0.00000       Uiso       1.00
      C118          C  0.0000000  0.7410800  0.6734100    0.00000       Uiso       1.00
        N8          N  0.0000000  0.6960100  0.6601700    0.00000       Uiso       1.00
      C119          C  0.0000000  0.6493000  0.6803200    0.00000       Uiso       1.00
      C120          C  0.0000000  0.6422800  0.7228699    0.00000       Uiso       1.00
      C121          C  0.0000000  0.6086700  0.6547100    0.00000       Uiso       1.00
      C122          C  0.0000000  0.5940500  0.7388600    0.00000       Uiso       1.00
      C123          C  0.0000000  0.5611200  0.6702700    0.00000       Uiso       1.00
      C124          C  0.0000000  0.5516400  0.7129600    0.00000       Uiso       1.00
      C125          C  0.0000000  0.1966200  0.5698600    0.00000       Uiso       1.00
      C126          C  0.0000000  0.1694700  0.6516700    0.00000       Uiso       1.00
      C127          C  0.0000000  0.9747600  0.4263000    0.00000       Uiso       1.00
       H79          H  0.0000000  0.7849600  0.4591300    0.00000       Uiso       1.00
      C128          C  0.0000000  0.8668600  0.6205500    0.00000       Uiso       1.00
       H80          H  0.0000000  0.0394000  0.3967500    0.00000       Uiso       1.00
       H81          H  0.2400800  0.0000000  0.1253900    0.00000       Uiso       1.00
       H82          H  0.0570700  0.0000000  0.1807300    0.00000       Uiso       1.00
       H83          H  0.1293700  0.0000000  0.2256000    0.00000       Uiso       1.00
       H84          H  0.2303500  0.0000000  0.2408200    0.00000       Uiso       1.00
       H85          H  0.3739300  0.0000000  0.1525700    0.00000       Uiso       1.00
       H86          H  0.4616200  0.0000000  0.1771400    0.00000       Uiso       1.00
       H87          H  0.4031400  0.0000000  0.3025900    0.00000       Uiso       1.00
       H88          H  0.6884899  0.0000000  0.2751000    0.00000       Uiso       1.00
      C129          C  0.0496500  0.0000000  0.9547600    0.00000       Uiso       1.00
      C130          C  0.0953500  0.0000000  0.9789500    0.00000       Uiso       1.00
      C131          C  0.1014500  0.0000000  0.8794700    0.00000       Uiso       1.00
      C132          C  0.1992600  0.0000000  0.8629000    0.00000       Uiso       1.00
      C133          C  0.1904500  0.0000000  0.8207900    0.00000       Uiso       1.00
      C134          C  0.2368000  0.0000000  0.7920800    0.00000       Uiso       1.00
        N9          N  0.2848600  0.0000000  0.8076800    0.00000       Uiso       1.00
      C135          C  0.3366000  0.0000000  0.7884700    0.00000       Uiso       1.00
      C136          C  0.3450500  0.0000000  0.7459800    0.00000       Uiso       1.00
      C137          C  0.3806400  0.0000000  0.8145300    0.00000       Uiso       1.00
      C138          C  0.3977900  0.0000000  0.7304600    0.00000       Uiso       1.00
      C139          C  0.4329100  0.0000000  0.7993400    0.00000       Uiso       1.00
      C140          C  0.4436800  0.0000000  0.7566900    0.00000       Uiso       1.00
      C141          C  0.8430200  0.0000000  0.8909300    0.00000       Uiso       1.00
      C142          C  0.8623700  0.0000000  0.8071200    0.00000       Uiso       1.00
      C143          C  0.0511800  0.0000000  0.0900000    0.00000       Uiso       1.00
       H89          H  0.1338700  0.0000000  0.9679400    0.00000       Uiso       1.00
       H90          H  0.1743900  0.0000000  0.0799300    0.00000       Uiso       1.00
      C144          C  0.9053500  0.0000000  0.8352400    0.00000       Uiso       1.00
       H91          H  0.7400800  0.5000000  0.1253900    0.00000       Uiso       1.00
       H92          H  0.5570700  0.5000000  0.1807300    0.00000       Uiso       1.00
       H93          H  0.6293700  0.5000000  0.2256000    0.00000       Uiso       1.00
       H94          H  0.7303500  0.5000000  0.2408200    0.00000       Uiso       1.00
       H95          H  0.8739300  0.5000000  0.1525700    0.00000       Uiso       1.00
       H96          H  0.9616200  0.5000000  0.1771400    0.00000       Uiso       1.00
       H97          H  0.9031400  0.5000000  0.3025900    0.00000       Uiso       1.00
       H98          H  0.1884900  0.5000000  0.2751000    0.00000       Uiso       1.00
      C145          C  0.5496500  0.5000000  0.9547600    0.00000       Uiso       1.00
      C146          C  0.5953500  0.5000000  0.9789500    0.00000       Uiso       1.00
      C147          C  0.6014500  0.5000000  0.8794700    0.00000       Uiso       1.00
      C148          C  0.6992600  0.5000000  0.8629000    0.00000       Uiso       1.00
      C149          C  0.6904500  0.5000000  0.8207900    0.00000       Uiso       1.00
      C150          C  0.7368000  0.5000000  0.7920800    0.00000       Uiso       1.00
       N10          N  0.7848600  0.5000000  0.8076800    0.00000       Uiso       1.00
      C151          C  0.8365999  0.5000000  0.7884700    0.00000       Uiso       1.00
      C152          C  0.8450500  0.5000000  0.7459800    0.00000       Uiso       1.00
      C153          C  0.8806400  0.5000000  0.8145300    0.00000       Uiso       1.00
      C154          C  0.8977900  0.5000000  0.7304600    0.00000       Uiso       1.00
      C155          C  0.9329100  0.5000000  0.7993400    0.00000       Uiso       1.00
      C156          C  0.9436799  0.5000000  0.7566900    0.00000       Uiso       1.00
      C157          C  0.3430200  0.5000000  0.8909300    0.00000       Uiso       1.00
      C158          C  0.3623700  0.5000000  0.8071200    0.00000       Uiso       1.00
      C159          C  0.5511800  0.5000000  0.0900000    0.00000       Uiso       1.00
       H99          H  0.6338700  0.5000000  0.9679400    0.00000       Uiso       1.00
      H100          H  0.6743900  0.5000000  0.0799300    0.00000       Uiso       1.00
      C160          C  0.4053500  0.5000000  0.8352400    0.00000       Uiso       1.00
      H101          H  0.7599200  0.0000000  0.1253900    0.00000       Uiso       1.00
      H102          H  0.9429300  0.0000000  0.1807300    0.00000       Uiso       1.00
      H103          H  0.8706300  0.0000000  0.2256000    0.00000       Uiso       1.00
      H104          H  0.7696500  0.0000000  0.2408200    0.00000       Uiso       1.00
      H105          H  0.6260700  0.0000000  0.1525700    0.00000       Uiso       1.00
      H106          H  0.5383800  0.0000000  0.1771400    0.00000       Uiso       1.00
      H107          H  0.5968600  0.0000000  0.3025900    0.00000       Uiso       1.00
      H108          H  0.3115100  0.0000000  0.2751000    0.00000       Uiso       1.00
      C161          C  0.9503500  0.0000000  0.9547600    0.00000       Uiso       1.00
      C162          C  0.9046500  0.0000000  0.9789500    0.00000       Uiso       1.00
      C163          C  0.8985500  0.0000000  0.8794700    0.00000       Uiso       1.00
      C164          C  0.8007399  0.0000000  0.8629000    0.00000       Uiso       1.00
      C165          C  0.8095500  0.0000000  0.8207900    0.00000       Uiso       1.00
      C166          C  0.7632000  0.0000000  0.7920800    0.00000       Uiso       1.00
       N11          N  0.7151400  0.0000000  0.8076800    0.00000       Uiso       1.00
      C167          C  0.6634000  0.0000000  0.7884700    0.00000       Uiso       1.00
      C168          C  0.6549500  0.0000000  0.7459800    0.00000       Uiso       1.00
      C169          C  0.6193600  0.0000000  0.8145300    0.00000       Uiso       1.00
      C170          C  0.6022100  0.0000000  0.7304600    0.00000       Uiso       1.00
      C171          C  0.5670900  0.0000000  0.7993400    0.00000       Uiso       1.00
      C172          C  0.5563200  0.0000000  0.7566900    0.00000       Uiso       1.00
      C173          C  0.1569800  0.0000000  0.8909300    0.00000       Uiso       1.00
      C174          C  0.1376300  0.0000000  0.8071200    0.00000       Uiso       1.00
      C175          C  0.9488200  0.0000000  0.0900000    0.00000       Uiso       1.00
      H109          H  0.8661300  0.0000000  0.9679400    0.00000       Uiso       1.00
      H110          H  0.8256100  0.0000000  0.0799300    0.00000       Uiso       1.00
      C176          C  0.0946500  0.0000000  0.8352400    0.00000       Uiso       1.00
      H111          H  0.2599200  0.5000000  0.1253900    0.00000       Uiso       1.00
      H112          H  0.4429300  0.5000000  0.1807300    0.00000       Uiso       1.00
      H113          H  0.3706300  0.5000000  0.2256000    0.00000       Uiso       1.00
      H114          H  0.2696500  0.5000000  0.2408200    0.00000       Uiso       1.00
      H115          H  0.1260700  0.5000000  0.1525700    0.00000       Uiso       1.00
      H116          H  0.0383800  0.5000000  0.1771400    0.00000       Uiso       1.00
      H117          H  0.0968600  0.5000000  0.3025900    0.00000       Uiso       1.00
      H118          H  0.8115100  0.5000000  0.2751000    0.00000       Uiso       1.00
      C177          C  0.4503500  0.5000000  0.9547600    0.00000       Uiso       1.00
      C178          C  0.4046500  0.5000000  0.9789500    0.00000       Uiso       1.00
      C179          C  0.3985500  0.5000000  0.8794700    0.00000       Uiso       1.00
      C180          C  0.3007400  0.5000000  0.8629000    0.00000       Uiso       1.00
      C181          C  0.3095500  0.5000000  0.8207900    0.00000       Uiso       1.00
      C182          C  0.2632000  0.5000000  0.7920800    0.00000       Uiso       1.00
       N12          N  0.2151400  0.5000000  0.8076800    0.00000       Uiso       1.00
      C183          C  0.1634000  0.5000000  0.7884700    0.00000       Uiso       1.00
      C184          C  0.1549500  0.5000000  0.7459800    0.00000       Uiso       1.00
      C185          C  0.1193600  0.5000000  0.8145300    0.00000       Uiso       1.00
      C186          C  0.1022100  0.5000000  0.7304600    0.00000       Uiso       1.00
      C187          C  0.0670900  0.5000000  0.7993400    0.00000       Uiso       1.00
      C188          C  0.0563200  0.5000000  0.7566900    0.00000       Uiso       1.00
      C189          C  0.6569799  0.5000000  0.8909300    0.00000       Uiso       1.00
      C190          C  0.6376300  0.5000000  0.8071200    0.00000       Uiso       1.00
      C191          C  0.4488200  0.5000000  0.0900000    0.00000       Uiso       1.00
      H119          H  0.3661300  0.5000000  0.9679400    0.00000       Uiso       1.00
      H120          H  0.3256100  0.5000000  0.0799300    0.00000       Uiso       1.00
      C192          C  0.5946500  0.5000000  0.8352400    0.00000       Uiso       1.00
      H121          H  0.7599200  0.0000000  0.8746100    0.00000       Uiso       1.00
      H122          H  0.9429300  0.0000000  0.8192700    0.00000       Uiso       1.00
      H123          H  0.8706300  0.0000000  0.7744000    0.00000       Uiso       1.00
      H124          H  0.7696500  0.0000000  0.7591799    0.00000       Uiso       1.00
      H125          H  0.6260700  0.0000000  0.8474300    0.00000       Uiso       1.00
      H126          H  0.5383800  0.0000000  0.8228600    0.00000       Uiso       1.00
      H127          H  0.5968600  0.0000000  0.6974100    0.00000       Uiso       1.00
      H128          H  0.3115100  0.0000000  0.7249000    0.00000       Uiso       1.00
      C193          C  0.9503500  0.0000000  0.0452400    0.00000       Uiso       1.00
      C194          C  0.9046500  0.0000000  0.0210500    0.00000       Uiso       1.00
      C195          C  0.8985500  0.0000000  0.1205300    0.00000       Uiso       1.00
      C196          C  0.8007399  0.0000000  0.1371000    0.00000       Uiso       1.00
      C197          C  0.8095500  0.0000000  0.1792100    0.00000       Uiso       1.00
      C198          C  0.7632000  0.0000000  0.2079200    0.00000       Uiso       1.00
       N13          N  0.7151400  0.0000000  0.1923200    0.00000       Uiso       1.00
      C199          C  0.6634000  0.0000000  0.2115300    0.00000       Uiso       1.00
      C200          C  0.6549500  0.0000000  0.2540200    0.00000       Uiso       1.00
      C201          C  0.6193600  0.0000000  0.1854700    0.00000       Uiso       1.00
      C202          C  0.6022100  0.0000000  0.2695400    0.00000       Uiso       1.00
      C203          C  0.5670900  0.0000000  0.2006600    0.00000       Uiso       1.00
      C204          C  0.5563200  0.0000000  0.2433100    0.00000       Uiso       1.00
      C205          C  0.1569800  0.0000000  0.1090700    0.00000       Uiso       1.00
      C206          C  0.1376300  0.0000000  0.1928800    0.00000       Uiso       1.00
      C207          C  0.9488200  0.0000000  0.9100000    0.00000       Uiso       1.00
      H129          H  0.8661300  0.0000000  0.0320600    0.00000       Uiso       1.00
      H130          H  0.8256100  0.0000000  0.9200700    0.00000       Uiso       1.00
      C208          C  0.0946500  0.0000000  0.1647600    0.00000       Uiso       1.00
      H131          H  0.2599200  0.5000000  0.8746100    0.00000       Uiso       1.00
      H132          H  0.4429300  0.5000000  0.8192700    0.00000       Uiso       1.00
      H133          H  0.3706300  0.5000000  0.7744000    0.00000       Uiso       1.00
      H134          H  0.2696500  0.5000000  0.7591799    0.00000       Uiso       1.00
      H135          H  0.1260700  0.5000000  0.8474300    0.00000       Uiso       1.00
      H136          H  0.0383800  0.5000000  0.8228600    0.00000       Uiso       1.00
      H137          H  0.0968600  0.5000000  0.6974100    0.00000       Uiso       1.00
      H138          H  0.8115100  0.5000000  0.7249000    0.00000       Uiso       1.00
      C209          C  0.4503500  0.5000000  0.0452400    0.00000       Uiso       1.00
      C210          C  0.4046500  0.5000000  0.0210500    0.00000       Uiso       1.00
      C211          C  0.3985500  0.5000000  0.1205300    0.00000       Uiso       1.00
      C212          C  0.3007400  0.5000000  0.1371000    0.00000       Uiso       1.00
      C213          C  0.3095500  0.5000000  0.1792100    0.00000       Uiso       1.00
      C214          C  0.2632000  0.5000000  0.2079200    0.00000       Uiso       1.00
       N14          N  0.2151400  0.5000000  0.1923200    0.00000       Uiso       1.00
      C215          C  0.1634000  0.5000000  0.2115300    0.00000       Uiso       1.00
      C216          C  0.1549500  0.5000000  0.2540200    0.00000       Uiso       1.00
      C217          C  0.1193600  0.5000000  0.1854700    0.00000       Uiso       1.00
      C218          C  0.1022100  0.5000000  0.2695400    0.00000       Uiso       1.00
      C219          C  0.0670900  0.5000000  0.2006600    0.00000       Uiso       1.00
      C220          C  0.0563200  0.5000000  0.2433100    0.00000       Uiso       1.00
      C221          C  0.6569799  0.5000000  0.1090700    0.00000       Uiso       1.00
      C222          C  0.6376300  0.5000000  0.1928800    0.00000       Uiso       1.00
      C223          C  0.4488200  0.5000000  0.9100000    0.00000       Uiso       1.00
      H139          H  0.3661300  0.5000000  0.0320600    0.00000       Uiso       1.00
      H140          H  0.3256100  0.5000000  0.9200700    0.00000       Uiso       1.00
      C224          C  0.5946500  0.5000000  0.1647600    0.00000       Uiso       1.00
      H141          H  0.2400800  0.0000000  0.8746100    0.00000       Uiso       1.00
      H142          H  0.0570700  0.0000000  0.8192700    0.00000       Uiso       1.00
      H143          H  0.1293700  0.0000000  0.7744000    0.00000       Uiso       1.00
      H144          H  0.2303500  0.0000000  0.7591799    0.00000       Uiso       1.00
      H145          H  0.3739300  0.0000000  0.8474300    0.00000       Uiso       1.00
      H146          H  0.4616200  0.0000000  0.8228600    0.00000       Uiso       1.00
      H147          H  0.4031400  0.0000000  0.6974100    0.00000       Uiso       1.00
      H148          H  0.6884899  0.0000000  0.7249000    0.00000       Uiso       1.00
      C225          C  0.0496500  0.0000000  0.0452400    0.00000       Uiso       1.00
      C226          C  0.0953500  0.0000000  0.0210500    0.00000       Uiso       1.00
      C227          C  0.1014500  0.0000000  0.1205300    0.00000       Uiso       1.00
      C228          C  0.1992600  0.0000000  0.1371000    0.00000       Uiso       1.00
      C229          C  0.1904500  0.0000000  0.1792100    0.00000       Uiso       1.00
      C230          C  0.2368000  0.0000000  0.2079200    0.00000       Uiso       1.00
       N15          N  0.2848600  0.0000000  0.1923200    0.00000       Uiso       1.00
      C231          C  0.3366000  0.0000000  0.2115300    0.00000       Uiso       1.00
      C232          C  0.3450500  0.0000000  0.2540200    0.00000       Uiso       1.00
      C233          C  0.3806400  0.0000000  0.1854700    0.00000       Uiso       1.00
      C234          C  0.3977900  0.0000000  0.2695400    0.00000       Uiso       1.00
      C235          C  0.4329100  0.0000000  0.2006600    0.00000       Uiso       1.00
      C236          C  0.4436800  0.0000000  0.2433100    0.00000       Uiso       1.00
      C237          C  0.8430200  0.0000000  0.1090700    0.00000       Uiso       1.00
      C238          C  0.8623700  0.0000000  0.1928800    0.00000       Uiso       1.00
      C239          C  0.0511800  0.0000000  0.9100000    0.00000       Uiso       1.00
      H149          H  0.1338700  0.0000000  0.0320600    0.00000       Uiso       1.00
      H150          H  0.1743900  0.0000000  0.9200700    0.00000       Uiso       1.00
      C240          C  0.9053500  0.0000000  0.1647600    0.00000       Uiso       1.00
      H151          H  0.7400800  0.5000000  0.8746100    0.00000       Uiso       1.00
      H152          H  0.5570700  0.5000000  0.8192700    0.00000       Uiso       1.00
      H153          H  0.6293700  0.5000000  0.7744000    0.00000       Uiso       1.00
      H154          H  0.7303500  0.5000000  0.7591799    0.00000       Uiso       1.00
      H155          H  0.8739300  0.5000000  0.8474300    0.00000       Uiso       1.00
      H156          H  0.9616200  0.5000000  0.8228600    0.00000       Uiso       1.00
      H157          H  0.9031400  0.5000000  0.6974100    0.00000       Uiso       1.00
      H158          H  0.1884900  0.5000000  0.7249000    0.00000       Uiso       1.00
      C241          C  0.5496500  0.5000000  0.0452400    0.00000       Uiso       1.00
      C242          C  0.5953500  0.5000000  0.0210500    0.00000       Uiso       1.00
      C243          C  0.6014500  0.5000000  0.1205300    0.00000       Uiso       1.00
      C244          C  0.6992600  0.5000000  0.1371000    0.00000       Uiso       1.00
      C245          C  0.6904500  0.5000000  0.1792100    0.00000       Uiso       1.00
      C246          C  0.7368000  0.5000000  0.2079200    0.00000       Uiso       1.00
       N16          N  0.7848600  0.5000000  0.1923200    0.00000       Uiso       1.00
      C247          C  0.8365999  0.5000000  0.2115300    0.00000       Uiso       1.00
      C248          C  0.8450500  0.5000000  0.2540200    0.00000       Uiso       1.00
      C249          C  0.8806400  0.5000000  0.1854700    0.00000       Uiso       1.00
      C250          C  0.8977900  0.5000000  0.2695400    0.00000       Uiso       1.00
      C251          C  0.9329100  0.5000000  0.2006600    0.00000       Uiso       1.00
      C252          C  0.9436799  0.5000000  0.2433100    0.00000       Uiso       1.00
      C253          C  0.3430200  0.5000000  0.1090700    0.00000       Uiso       1.00
      C254          C  0.3623700  0.5000000  0.1928800    0.00000       Uiso       1.00
      C255          C  0.5511800  0.5000000  0.9100000    0.00000       Uiso       1.00
      H159          H  0.6338700  0.5000000  0.0320600    0.00000       Uiso       1.00
      H160          H  0.6743900  0.5000000  0.9200700    0.00000       Uiso       1.00
      C256          C  0.4053500  0.5000000  0.1647600    0.00000       Uiso       1.00
      C257          C  0.5000000  0.0000000  0.7348899    0.00000       Uiso       1.00
      C258          C  0.0000000  0.5000000  0.7348899    0.00000       Uiso       1.00
      C259          C  0.5000000  0.0000000  0.2651100    0.00000       Uiso       1.00
      C260          C  0.0000000  0.5000000  0.2651100    0.00000       Uiso       1.00
      C261          C  0.0000000  0.0000000  0.0228100    0.00000       Uiso       1.00
      C262          C  0.0000000  0.0000000  0.8912600    0.00000       Uiso       1.00
      H161          H  0.0000000  0.0000000  0.8598900    0.00000       Uiso       1.00
      C263          C  0.5000000  0.5000000  0.0228100    0.00000       Uiso       1.00
      C264          C  0.5000000  0.5000000  0.8912600    0.00000       Uiso       1.00
      H162          H  0.5000000  0.5000000  0.8598900    0.00000       Uiso       1.00
      C265          C  0.0000000  0.0000000  0.9771900    0.00000       Uiso       1.00
      C266          C  0.0000000  0.0000000  0.1087400    0.00000       Uiso       1.00
      H163          H  0.0000000  0.0000000  0.1401100    0.00000       Uiso       1.00
      C267          C  0.5000000  0.5000000  0.9771900    0.00000       Uiso       1.00
      C268          C  0.5000000  0.5000000  0.1087400    0.00000       Uiso       1.00
      H164          H  0.5000000  0.5000000  0.1401100    0.00000       Uiso       1.00
      C269          C  0.5000000  0.4729900  0.5000000    0.00000       Uiso       1.00
      C270          C  0.5000000  0.3715700  0.5000000    0.00000       Uiso       1.00
      H165          H  0.5000000  0.3349400  0.5000000    0.00000       Uiso       1.00
      C271          C  0.0000000  0.9729900  0.5000000    0.00000       Uiso       1.00
      C272          C  0.0000000  0.8715701  0.5000000    0.00000       Uiso       1.00
      H166          H  0.0000000  0.8349400  0.5000000    0.00000       Uiso       1.00
      C273          C  0.5000000  0.5270100  0.5000000    0.00000       Uiso       1.00
      C274          C  0.5000000  0.6284300  0.5000000    0.00000       Uiso       1.00
      H167          H  0.5000000  0.6650600  0.5000000    0.00000       Uiso       1.00
      C275          C  0.0000000  0.0270100  0.5000000    0.00000       Uiso       1.00
      C276          C  0.0000000  0.1284300  0.5000000    0.00000       Uiso       1.00
      H168          H  0.0000000  0.1650600  0.5000000    0.00000       Uiso       1.00
