data_CS-COF
_audit_creation_date              0000-00-00
_audit_creation_method            'LanYouShi'
_symmetry_space_group_name_H-M    'P1'
_cell_length_a                    32.3400002
_cell_length_b                    32.3400002
_cell_length_c                    3.4000001
_cell_angle_alpha                 90.0000000
_cell_angle_beta                  90.0000000
_cell_angle_gamma                 120.0000000
loop_
_atom_site_label
_atom_site_type_symbol
_atom_site_fract_x
_atom_site_fract_y
_atom_site_fract_z
_atom_site_U_iso_or_equiv
_atom_site_adp_type
_atom_site_occupancy
        C1          C  0.5476190  0.5476190  1.4705882    0.00000       Uiso       1.00
        C2          C  0.5476190  0.5000000  1.4705882    0.00000       Uiso       1.00
        C3          C  0.5000000  0.4523810  1.4705882    0.00000       Uiso       1.00
        C4          C  0.4523810  0.4523810  1.4705882    0.00000       Uiso       1.00
        C5          C  0.4523810  0.5000000  1.4705882    0.00000       Uiso       1.00
        C6          C  0.5000000  0.5476190  1.4705882    0.00000       Uiso       1.00
        C7          C  0.4047619  0.4047619  1.4705882    0.00000       Uiso       1.00
        C8          C  0.4047619  0.3571428  1.4705882    0.00000       Uiso       1.00
        C9          C  0.4523810  0.3571428  1.4705882    0.00000       Uiso       1.00
       C10          C  0.5000000  0.4047619  1.4705882    0.00000       Uiso       1.00
       C11          C  0.5952381  0.5952381  1.4705882    0.00000       Uiso       1.00
       C12          C  0.6428571  0.5952381  1.4705882    0.00000       Uiso       1.00
       C13          C  0.6428571  0.5476190  1.4705882    0.00000       Uiso       1.00
       C14          C  0.5952381  0.5000000  1.4705882    0.00000       Uiso       1.00
       C15          C  0.5000000  0.5952381  1.4705882    0.00000       Uiso       1.00
       C16          C  0.4523810  0.5952381  1.4705882    0.00000       Uiso       1.00
       C17          C  0.4047619  0.5476190  1.4705882    0.00000       Uiso       1.00
       C18          C  0.4047619  0.5000000  1.4705882    0.00000       Uiso       1.00
        N1          N  0.4523810  0.3095238  1.4705882    0.00000       Uiso       1.00
       C19          C  0.4047619  0.2619047  1.4705882    0.00000       Uiso       1.00
       C20          C  0.3571429  0.2619047  1.4705882    0.00000       Uiso       1.00
        N2          N  0.3571428  0.3095238  1.4705882    0.00000       Uiso       1.00
        N3          N  0.6904762  0.5476190  1.4705882    0.00000       Uiso       1.00
       C21          C  0.7380952  0.5952380  1.4705882    0.00000       Uiso       1.00
       C22          C  0.7380952  0.6428571  1.4705882    0.00000       Uiso       1.00
        N4          N  0.6904762  0.6428571  1.4705882    0.00000       Uiso       1.00
        N5          N  0.3571429  0.5476190  1.4705882    0.00000       Uiso       1.00
       C23          C  0.3571428  0.5952380  1.4705882    0.00000       Uiso       1.00
       C24          C  0.4047619  0.6428571  1.4705882    0.00000       Uiso       1.00
        N6          N  0.4523809  0.6428571  1.4705882    0.00000       Uiso       1.00
        H1          H  0.3695115  0.4047619  1.4705882    0.00000       Uiso       1.00
        H2          H  0.5352505  0.4047619  1.4705882    0.00000       Uiso       1.00
        H3          H  0.5952381  0.6304886  1.4705882    0.00000       Uiso       1.00
        H4          H  0.5952381  0.4647495  1.4705882    0.00000       Uiso       1.00
        H5          H  0.5352505  0.6304886  1.4705882    0.00000       Uiso       1.00
        H6          H  0.3695115  0.4647495  1.4705882    0.00000       Uiso       1.00
       C25          C  0.1190476  0.7857143  1.4705882    0.00000       Uiso       1.00
       C26          C  0.1190476  0.8333333  1.4705882    0.00000       Uiso       1.00
       C27          C  0.1666667  0.8809524  1.4705882    0.00000       Uiso       1.00
       C28          C  0.2142857  0.8809524  1.4705882    0.00000       Uiso       1.00
       C29          C  0.2142857  0.8333333  1.4705882    0.00000       Uiso       1.00
       C30          C  0.1666667  0.7857143  1.4705882    0.00000       Uiso       1.00
       C31          C  0.2619047  0.9285714  1.4705882    0.00000       Uiso       1.00
       C32          C  0.2619047  0.9761904  1.4705882    0.00000       Uiso       1.00
       C33          C  0.2142857  0.9761904  1.4705882    0.00000       Uiso       1.00
       C34          C  0.1666667  0.9285714  1.4705882    0.00000       Uiso       1.00
       C35          C  0.0714286  0.7380952  1.4705882    0.00000       Uiso       1.00
       C36          C  0.0238095  0.7380952  1.4705882    0.00000       Uiso       1.00
       C37          C  0.0238095  0.7857143  1.4705882    0.00000       Uiso       1.00
       C38          C  0.0714286  0.8333333  1.4705882    0.00000       Uiso       1.00
       C39          C  0.1666667  0.7380952  1.4705882    0.00000       Uiso       1.00
       C40          C  0.2142857  0.7380952  1.4705882    0.00000       Uiso       1.00
       C41          C  0.2619047  0.7857143  1.4705882    0.00000       Uiso       1.00
       C42          C  0.2619047  0.8333333  1.4705882    0.00000       Uiso       1.00
        N7          N  0.2142857  0.0238095  1.4705882    0.00000       Uiso       1.00
       C43          C  0.2619047  0.0714286  1.4705882    0.00000       Uiso       1.00
       C44          C  0.3095238  0.0714286  1.4705882    0.00000       Uiso       1.00
        N8          N  0.3095238  0.0238095  1.4705882    0.00000       Uiso       1.00
        N9          N  0.9761904  0.7857143  1.4705882    0.00000       Uiso       1.00
       C45          C  0.9285714  0.7380952  1.4705882    0.00000       Uiso       1.00
       C46          C  0.9285714  0.6904762  1.4705882    0.00000       Uiso       1.00
       N10          N  0.9761905  0.6904762  1.4705882    0.00000       Uiso       1.00
       N11          N  0.3095238  0.7857143  1.4705882    0.00000       Uiso       1.00
       C47          C  0.3095238  0.7380952  1.4705882    0.00000       Uiso       1.00
       C48          C  0.2619047  0.6904762  1.4705882    0.00000       Uiso       1.00
       N12          N  0.2142857  0.6904762  1.4705882    0.00000       Uiso       1.00
        H7          H  0.2971552  0.9285714  1.4705882    0.00000       Uiso       1.00
        H8          H  0.1314162  0.9285714  1.4705882    0.00000       Uiso       1.00
        H9          H  0.0714286  0.7028447  1.4705882    0.00000       Uiso       1.00
       H10          H  0.0714286  0.8685838  1.4705882    0.00000       Uiso       1.00
       H11          H  0.1314162  0.7028447  1.4705882    0.00000       Uiso       1.00
       H12          H  0.2971552  0.8685838  1.4705882    0.00000       Uiso       1.00
       C49          C  0.8809524  0.7380952  1.4705882    0.00000       Uiso       1.00
       C50          C  0.8333333  0.6904762  1.4705882    0.00000       Uiso       1.00
       C51          C  0.8333333  0.6428571  1.4705882    0.00000       Uiso       1.00
       C52          C  0.8809524  0.6428571  1.4705882    0.00000       Uiso       1.00
       C53          C  0.7857143  0.5952380  1.4705882    0.00000       Uiso       1.00
       C54          C  0.7857143  0.6904762  1.4705882    0.00000       Uiso       1.00
       C55          C  0.7857143  0.7380952  1.4705882    0.00000       Uiso       1.00
       C56          C  0.8333333  0.7857143  1.4705882    0.00000       Uiso       1.00
       C57          C  0.8809524  0.7857143  1.4705882    0.00000       Uiso       1.00
       C58          C  0.8809524  0.5952380  1.4705882    0.00000       Uiso       1.00
       C59          C  0.8333333  0.5476190  1.4705882    0.00000       Uiso       1.00
       C60          C  0.7857143  0.5476190  1.4705882    0.00000       Uiso       1.00
       H13          H  0.7504638  0.7380952  1.4705882    0.00000       Uiso       1.00
       H14          H  0.8333334  0.8209648  1.4705882    0.00000       Uiso       1.00
       H15          H  0.9162028  0.8209648  1.4705882    0.00000       Uiso       1.00
       H16          H  0.9162028  0.5952380  1.4705882    0.00000       Uiso       1.00
       H17          H  0.8333334  0.5123686  1.4705882    0.00000       Uiso       1.00
       H18          H  0.7504638  0.5123686  1.4705882    0.00000       Uiso       1.00
       C61          C  0.3571428  0.7380952  1.4705882    0.00000       Uiso       1.00
       C62          C  0.3571428  0.6904762  1.4705882    0.00000       Uiso       1.00
       C63          C  0.3095238  0.6428571  1.4705882    0.00000       Uiso       1.00
       C64          C  0.2619047  0.6428571  1.4705882    0.00000       Uiso       1.00
       C65          C  0.3095238  0.5952380  1.4705882    0.00000       Uiso       1.00
       C66          C  0.4047619  0.6904762  1.4705882    0.00000       Uiso       1.00
       C67          C  0.4523809  0.7380952  1.4705882    0.00000       Uiso       1.00
       C68          C  0.4523810  0.7857143  1.4705882    0.00000       Uiso       1.00
       C69          C  0.4047619  0.7857143  1.4705882    0.00000       Uiso       1.00
       C70          C  0.2142857  0.5952380  1.4705882    0.00000       Uiso       1.00
       C71          C  0.2142857  0.5476190  1.4705882    0.00000       Uiso       1.00
       C72          C  0.2619047  0.5476190  1.4705882    0.00000       Uiso       1.00
       H19          H  0.4876314  0.7380952  1.4705882    0.00000       Uiso       1.00
       H20          H  0.4876314  0.8209648  1.4705882    0.00000       Uiso       1.00
       H21          H  0.4047619  0.8209648  1.4705882    0.00000       Uiso       1.00
       H22          H  0.1790352  0.5952380  1.4705882    0.00000       Uiso       1.00
       H23          H  0.1790353  0.5123686  1.4705882    0.00000       Uiso       1.00
       H24          H  0.2619048  0.5123686  1.4705882    0.00000       Uiso       1.00
       C73          C  0.2619048  0.1190476  1.4705882    0.00000       Uiso       1.00
       C74          C  0.3095238  0.1666667  1.4705882    0.00000       Uiso       1.00
       C75          C  0.3571429  0.1666667  1.4705882    0.00000       Uiso       1.00
       C76          C  0.3571429  0.1190476  1.4705882    0.00000       Uiso       1.00
       C77          C  0.4047619  0.2142857  1.4705882    0.00000       Uiso       1.00
       C78          C  0.3095238  0.2142857  1.4705882    0.00000       Uiso       1.00
       C79          C  0.2619048  0.2142857  1.4705882    0.00000       Uiso       1.00
       C80          C  0.2142857  0.1666667  1.4705882    0.00000       Uiso       1.00
       C81          C  0.2142857  0.1190476  1.4705882    0.00000       Uiso       1.00
       C82          C  0.4047619  0.1190476  1.4705882    0.00000       Uiso       1.00
       C83          C  0.4523810  0.1666667  1.4705882    0.00000       Uiso       1.00
       C84          C  0.4523810  0.2142857  1.4705882    0.00000       Uiso       1.00
       H25          H  0.2619047  0.2495362  1.4705882    0.00000       Uiso       1.00
       H26          H  0.1790352  0.1666667  1.4705882    0.00000       Uiso       1.00
       H27          H  0.1790352  0.0837972  1.4705882    0.00000       Uiso       1.00
       H28          H  0.4047619  0.0837972  1.4705882    0.00000       Uiso       1.00
       H29          H  0.4876314  0.1666667  1.4705882    0.00000       Uiso       1.00
       H30          H  0.4876314  0.2495362  1.4705882    0.00000       Uiso       1.00
