data_CTF-1
_audit_creation_date              0000-00-00
_audit_creation_method            'LanYouShi'
_symmetry_space_group_name_H-M    'P1'
_cell_length_a                    14.5740004
_cell_length_b                    14.5740004
_cell_length_c                    3.4040000
_cell_angle_alpha                 90.0000000
_cell_angle_beta                  90.0000000
_cell_angle_gamma                 120.0000000
loop_
_atom_site_label
_atom_site_type_symbol
_atom_site_fract_x
_atom_site_fract_y
_atom_site_fract_z
_atom_site_U_iso_or_equiv
_atom_site_adp_type
_atom_site_occupancy
        C1          C  0.6144200  0.3855800  0.5000000    0.00000       Uiso       1.00
        C2          C  0.5557900  0.4442100  0.5000000    0.00000       Uiso       1.00
        C3          C  0.6144200  0.2288400  0.5000000    0.00000       Uiso       1.00
        C4          C  0.5557900  0.1115800  0.5000000    0.00000       Uiso       1.00
        C5          C  0.7711600  0.3855800  0.5000000    0.00000       Uiso       1.00
        C6          C  0.8884199  0.4442100  0.5000000    0.00000       Uiso       1.00
        C7          C  0.3855800  0.6144200  0.5000000    0.00000       Uiso       1.00
        C8          C  0.4442100  0.5557900  0.5000000    0.00000       Uiso       1.00
        C9          C  0.3855800  0.7711600  0.5000000    0.00000       Uiso       1.00
       C10          C  0.4442100  0.8884199  0.5000000    0.00000       Uiso       1.00
       C11          C  0.2288400  0.6144200  0.5000000    0.00000       Uiso       1.00
       C12          C  0.1115800  0.5557900  0.5000000    0.00000       Uiso       1.00
       C13          C  0.6105700  0.5556100  0.5000000    0.00000       Uiso       1.00
        H1          H  0.5975500  0.6965399  0.5000000    0.00000       Uiso       1.00
       C14          C  0.4443900  0.0549600  0.5000000    0.00000       Uiso       1.00
        H2          H  0.3034600  0.9010099  0.5000000    0.00000       Uiso       1.00
       C15          C  0.9450400  0.3894300  0.5000000    0.00000       Uiso       1.00
        H3          H  0.0989900  0.4024500  0.5000000    0.00000       Uiso       1.00
       C16          C  0.3894300  0.4443900  0.5000000    0.00000       Uiso       1.00
        H4          H  0.4024500  0.3034600  0.5000000    0.00000       Uiso       1.00
       C17          C  0.5556100  0.9450400  0.5000000    0.00000       Uiso       1.00
        H5          H  0.6965400  0.0989900  0.5000000    0.00000       Uiso       1.00
       C18          C  0.0549600  0.6105700  0.5000000    0.00000       Uiso       1.00
        H6          H  0.9010100  0.5975500  0.5000000    0.00000       Uiso       1.00
       C19          C  0.5556100  0.6105700  0.5000000    0.00000       Uiso       1.00
        H7          H  0.6965400  0.5975500  0.5000000    0.00000       Uiso       1.00
       C20          C  0.0549600  0.4443900  0.5000000    0.00000       Uiso       1.00
        H8          H  0.9010100  0.3034600  0.5000000    0.00000       Uiso       1.00
       C21          C  0.3894300  0.9450400  0.5000000    0.00000       Uiso       1.00
        H9          H  0.4024500  0.0989900  0.5000000    0.00000       Uiso       1.00
       C22          C  0.4443900  0.3894300  0.5000000    0.00000       Uiso       1.00
       H10          H  0.3034600  0.4024500  0.5000000    0.00000       Uiso       1.00
       C23          C  0.9450399  0.5556100  0.5000000    0.00000       Uiso       1.00
       H11          H  0.0989900  0.6965399  0.5000000    0.00000       Uiso       1.00
       C24          C  0.6105700  0.0549600  0.5000000    0.00000       Uiso       1.00
       H12          H  0.5975500  0.9010099  0.5000000    0.00000       Uiso       1.00
        N1          N  0.4425500  0.7212750  0.5000000    0.00000       Uiso       1.00
        N2          N  0.2787250  0.7212750  0.5000000    0.00000       Uiso       1.00
        N3          N  0.2787250  0.5574500  0.5000000    0.00000       Uiso       1.00
        N4          N  0.5574500  0.2787250  0.5000000    0.00000       Uiso       1.00
        N5          N  0.7212750  0.2787250  0.5000000    0.00000       Uiso       1.00
        N6          N  0.7212750  0.4425500  0.5000000    0.00000       Uiso       1.00
