data_CTF-2-AB
_audit_creation_date              0000-00-00
_audit_creation_method            'LanYouShi'
_symmetry_space_group_name_H-M    'P1'
_cell_length_a                    18.3600006
_cell_length_b                    18.3600006
_cell_length_c                    6.7199998
_cell_angle_alpha                 90.0000000
_cell_angle_beta                  90.0000000
_cell_angle_gamma                 120.0000000
loop_
_atom_site_label
_atom_site_type_symbol
_atom_site_fract_x
_atom_site_fract_y
_atom_site_fract_z
_atom_site_U_iso_or_equiv
_atom_site_adp_type
_atom_site_occupancy
        C1          C  0.0328500  0.9504700  0.2500000    0.00000       Uiso       1.00
        C2          C  0.0697200  0.8948900  0.2500000    0.00000       Uiso       1.00
        C3          C  0.0521500  0.7548500  0.2500000    0.00000       Uiso       1.00
        C4          C  0.1574500  0.9291400  0.2500000    0.00000       Uiso       1.00
        C5          C  0.0175900  0.8069600  0.2500000    0.00000       Uiso       1.00
        N1          N  0.9482300  0.9138900  0.2500000    0.00000       Uiso       1.00
        C6          C  0.1920200  0.8770300  0.2500000    0.00000       Uiso       1.00
        C7          C  0.1744500  0.7370000  0.2500000    0.00000       Uiso       1.00
        C8          C  0.2797500  0.9112900  0.2500000    0.00000       Uiso       1.00
        C9          C  0.1398900  0.7891099  0.2500000    0.00000       Uiso       1.00
       C10          C  0.3143100  0.8591800  0.2500000    0.00000       Uiso       1.00
        N2          N  0.2477500  0.6314200  0.2500000    0.00000       Uiso       1.00
       C11          C  0.2843300  0.5833800  0.2500000    0.00000       Uiso       1.00
       C12          C  0.2287500  0.4909300  0.2500000    0.00000       Uiso       1.00
        H1          H  0.0093400  0.6836399  0.2500000    0.00000       Uiso       1.00
        H2          H  0.2008200  0.0002700  0.2500000    0.00000       Uiso       1.00
        H3          H  0.9463100  0.7779300  0.2500000    0.00000       Uiso       1.00
        H4          H  0.1316300  0.6657900  0.2500000    0.00000       Uiso       1.00
        H5          H  0.3855200  0.8875800  0.2500000    0.00000       Uiso       1.00
        H6          H  0.3231100  0.9824200  0.2500000    0.00000       Uiso       1.00
       C13          C  0.0495300  0.0823800  0.2500000    0.00000       Uiso       1.00
       C14          C  0.1051100  0.1748300  0.2500000    0.00000       Uiso       1.00
       C15          C  0.2451500  0.2973000  0.2500000    0.00000       Uiso       1.00
       C16          C  0.0708600  0.2283100  0.2500000    0.00000       Uiso       1.00
       C17          C  0.1930400  0.2106300  0.2500000    0.00000       Uiso       1.00
        N3          N  0.0861100  0.0343400  0.2500000    0.00000       Uiso       1.00
       C18          C  0.1229700  0.3149900  0.2500000    0.00000       Uiso       1.00
       C19          C  0.2630000  0.4374500  0.2500000    0.00000       Uiso       1.00
       C20          C  0.0887100  0.3684600  0.2500000    0.00000       Uiso       1.00
       C21          C  0.2108900  0.3507800  0.2500000    0.00000       Uiso       1.00
       C22          C  0.1408200  0.4551300  0.2500000    0.00000       Uiso       1.00
        N4          N  0.3685800  0.6163300  0.2500000    0.00000       Uiso       1.00
       C23          C  0.4166200  0.7009500  0.2500000    0.00000       Uiso       1.00
       C24          C  0.5090700  0.7378199  0.2500000    0.00000       Uiso       1.00
        H7          H  0.3163600  0.3257000  0.2500000    0.00000       Uiso       1.00
        H8          H  0.9997300  0.2005500  0.2500000    0.00000       Uiso       1.00
        H9          H  0.2220700  0.1683800  0.2500000    0.00000       Uiso       1.00
       H10          H  0.3342100  0.4658400  0.2500000    0.00000       Uiso       1.00
       H11          H  0.1124200  0.4979400  0.2500000    0.00000       Uiso       1.00
       H12          H  0.0175800  0.3406900  0.2500000    0.00000       Uiso       1.00
       C25          C  0.9176199  0.9671500  0.2500000    0.00000       Uiso       1.00
       C26          C  0.8251700  0.9302800  0.2500000    0.00000       Uiso       1.00
       C27          C  0.7027000  0.9478500  0.2500000    0.00000       Uiso       1.00
       C28          C  0.7716900  0.8425499  0.2500000    0.00000       Uiso       1.00
       C29          C  0.7893700  0.9824100  0.2500000    0.00000       Uiso       1.00
        N5          N  0.9656600  0.0517700  0.2500000    0.00000       Uiso       1.00
       C30          C  0.6850100  0.8079800  0.2500000    0.00000       Uiso       1.00
       C31          C  0.5625500  0.8255500  0.2500000    0.00000       Uiso       1.00
       C32          C  0.6315400  0.7202500  0.2500000    0.00000       Uiso       1.00
       C33          C  0.6492200  0.8601099  0.2500000    0.00000       Uiso       1.00
       C34          C  0.5448700  0.6856900  0.2500000    0.00000       Uiso       1.00
        N6          N  0.3836700  0.7522500  0.2500000    0.00000       Uiso       1.00
       C35          C  0.2990500  0.7156699  0.2500000    0.00000       Uiso       1.00
       C36          C  0.2621800  0.7712500  0.2500000    0.00000       Uiso       1.00
       H13          H  0.6743000  0.9906600  0.2500000    0.00000       Uiso       1.00
       H14          H  0.7994500  0.7991800  0.2500000    0.00000       Uiso       1.00
       H15          H  0.8316200  0.0536900  0.2500000    0.00000       Uiso       1.00
       H16          H  0.5341600  0.8683700  0.2500000    0.00000       Uiso       1.00
       H17          H  0.5020600  0.6144800  0.2500000    0.00000       Uiso       1.00
       H18          H  0.6593100  0.6768900  0.2500000    0.00000       Uiso       1.00
       C37          C  0.9671500  0.0495300  0.7500000    0.00000       Uiso       1.00
       C38          C  0.9302800  0.1051100  0.7500000    0.00000       Uiso       1.00
       C39          C  0.9478500  0.2451500  0.7500000    0.00000       Uiso       1.00
       C40          C  0.8425499  0.0708600  0.7500000    0.00000       Uiso       1.00
       C41          C  0.9824100  0.1930400  0.7500000    0.00000       Uiso       1.00
        N7          N  0.0517700  0.0861100  0.7500000    0.00000       Uiso       1.00
       C42          C  0.8079800  0.1229700  0.7500000    0.00000       Uiso       1.00
       C43          C  0.8255500  0.2630000  0.7500000    0.00000       Uiso       1.00
       C44          C  0.7202500  0.0887100  0.7500000    0.00000       Uiso       1.00
       C45          C  0.8601099  0.2108900  0.7500000    0.00000       Uiso       1.00
       C46          C  0.6856899  0.1408200  0.7500000    0.00000       Uiso       1.00
        N8          N  0.7522500  0.3685800  0.7500000    0.00000       Uiso       1.00
       C47          C  0.7156699  0.4166200  0.7500000    0.00000       Uiso       1.00
       C48          C  0.7712500  0.5090700  0.7500000    0.00000       Uiso       1.00
       H19          H  0.9906600  0.3163600  0.7500000    0.00000       Uiso       1.00
       H20          H  0.7991799  0.9997299  0.7500000    0.00000       Uiso       1.00
       H21          H  0.0536900  0.2220700  0.7500000    0.00000       Uiso       1.00
       H22          H  0.8683699  0.3342100  0.7500000    0.00000       Uiso       1.00
       H23          H  0.6144800  0.1124200  0.7500000    0.00000       Uiso       1.00
       H24          H  0.6768900  0.0175800  0.7500000    0.00000       Uiso       1.00
       C49          C  0.9504700  0.9176199  0.7500000    0.00000       Uiso       1.00
       C50          C  0.8948900  0.8251700  0.7500000    0.00000       Uiso       1.00
       C51          C  0.7548500  0.7027000  0.7500000    0.00000       Uiso       1.00
       C52          C  0.9291400  0.7716900  0.7500000    0.00000       Uiso       1.00
       C53          C  0.8069600  0.7893700  0.7500000    0.00000       Uiso       1.00
        N9          N  0.9138899  0.9656600  0.7500000    0.00000       Uiso       1.00
       C54          C  0.8770300  0.6850100  0.7500000    0.00000       Uiso       1.00
       C55          C  0.7369999  0.5625500  0.7500000    0.00000       Uiso       1.00
       C56          C  0.9112900  0.6315399  0.7500000    0.00000       Uiso       1.00
       C57          C  0.7891099  0.6492199  0.7500000    0.00000       Uiso       1.00
       C58          C  0.8591800  0.5448700  0.7500000    0.00000       Uiso       1.00
       N10          N  0.6314200  0.3836700  0.7500000    0.00000       Uiso       1.00
       C59          C  0.5833800  0.2990500  0.7500000    0.00000       Uiso       1.00
       C60          C  0.4909300  0.2621800  0.7500000    0.00000       Uiso       1.00
       H25          H  0.6836400  0.6743000  0.7500000    0.00000       Uiso       1.00
       H26          H  0.0002700  0.7994499  0.7500000    0.00000       Uiso       1.00
       H27          H  0.7779300  0.8316200  0.7500000    0.00000       Uiso       1.00
       H28          H  0.6657900  0.5341600  0.7500000    0.00000       Uiso       1.00
       H29          H  0.8875800  0.5020600  0.7500000    0.00000       Uiso       1.00
       H30          H  0.9824200  0.6593100  0.7500000    0.00000       Uiso       1.00
       C61          C  0.0823800  0.0328500  0.7500000    0.00000       Uiso       1.00
       C62          C  0.1748300  0.0697200  0.7500000    0.00000       Uiso       1.00
       C63          C  0.2973000  0.0521500  0.7500000    0.00000       Uiso       1.00
       C64          C  0.2283100  0.1574500  0.7500000    0.00000       Uiso       1.00
       C65          C  0.2106300  0.0175900  0.7500000    0.00000       Uiso       1.00
       N11          N  0.0343400  0.9482299  0.7500000    0.00000       Uiso       1.00
       C66          C  0.3149900  0.1920200  0.7500000    0.00000       Uiso       1.00
       C67          C  0.4374500  0.1744500  0.7500000    0.00000       Uiso       1.00
       C68          C  0.3684600  0.2797500  0.7500000    0.00000       Uiso       1.00
       C69          C  0.3507800  0.1398900  0.7500000    0.00000       Uiso       1.00
       C70          C  0.4551300  0.3143100  0.7500000    0.00000       Uiso       1.00
       N12          N  0.6163300  0.2477500  0.7500000    0.00000       Uiso       1.00
       C71          C  0.7009500  0.2843300  0.7500000    0.00000       Uiso       1.00
       C72          C  0.7378199  0.2287500  0.7500000    0.00000       Uiso       1.00
       H31          H  0.3257000  0.0093400  0.7500000    0.00000       Uiso       1.00
       H32          H  0.2005500  0.2008200  0.7500000    0.00000       Uiso       1.00
       H33          H  0.1683800  0.9463100  0.7500000    0.00000       Uiso       1.00
       H34          H  0.4658400  0.1316300  0.7500000    0.00000       Uiso       1.00
       H35          H  0.4979400  0.3855200  0.7500000    0.00000       Uiso       1.00
       H36          H  0.3406900  0.3231100  0.7500000    0.00000       Uiso       1.00
