data_CuP-Ph_COF
_audit_creation_date              0000-00-00
_audit_creation_method            'LanYouShi'
_symmetry_space_group_name_H-M    'P1'
_cell_length_a                    38.7958984
_cell_length_b                    33.0068016
_cell_length_c                    6.7649999
_cell_angle_alpha                 90.0000000
_cell_angle_beta                  90.0000000
_cell_angle_gamma                 90.0000000
loop_
_atom_site_label
_atom_site_type_symbol
_atom_site_fract_x
_atom_site_fract_y
_atom_site_fract_z
_atom_site_U_iso_or_equiv
_atom_site_adp_type
_atom_site_occupancy
        C1          C  0.2754661  0.7185509  0.5000030    0.00000       Uiso       1.00
        C2          C  0.7754667  0.2185512  0.5000030    0.00000       Uiso       1.00
        C3          C  0.7245352  0.2814484  0.5000030    0.00000       Uiso       1.00
        C4          C  0.2245346  0.7814480  0.5000030    0.00000       Uiso       1.00
        C5          C  0.7245352  0.7185509  0.5000030    0.00000       Uiso       1.00
        C6          C  0.2245346  0.2185512  0.5000030    0.00000       Uiso       1.00
        C7          C  0.2754661  0.2814484  0.5000030    0.00000       Uiso       1.00
        C8          C  0.7754667  0.7814480  0.5000030    0.00000       Uiso       1.00
        C9          C  0.2148640  0.7401053  0.5000030    0.00000       Uiso       1.00
       C10          C  0.7148647  0.2401057  0.5000030    0.00000       Uiso       1.00
       C11          C  0.7851373  0.2598939  0.5000030    0.00000       Uiso       1.00
       C12          C  0.2851366  0.7598935  0.5000030    0.00000       Uiso       1.00
       C13          C  0.7851373  0.7401053  0.5000030    0.00000       Uiso       1.00
       C14          C  0.2851366  0.2401057  0.5000030    0.00000       Uiso       1.00
       C15          C  0.2148640  0.2598939  0.5000030    0.00000       Uiso       1.00
       C16          C  0.7148647  0.7598935  0.5000030    0.00000       Uiso       1.00
       C17          C  0.2398777  0.7091982  0.5000030    0.00000       Uiso       1.00
       C18          C  0.7398784  0.2091986  0.5000030    0.00000       Uiso       1.00
       C19          C  0.7601236  0.2908010  0.5000030    0.00000       Uiso       1.00
       C20          C  0.2601230  0.7908006  0.5000030    0.00000       Uiso       1.00
       C21          C  0.7601236  0.7091982  0.5000030    0.00000       Uiso       1.00
       C22          C  0.2601230  0.2091986  0.5000030    0.00000       Uiso       1.00
       C23          C  0.2398777  0.2908010  0.5000030    0.00000       Uiso       1.00
       C24          C  0.7398784  0.7908006  0.5000030    0.00000       Uiso       1.00
       C25          C  0.9712842  0.9126698  0.5000030    0.00000       Uiso       1.00
       C26          C  0.4712836  0.4126702  0.5000030    0.00000       Uiso       1.00
       C27          C  0.0287171  0.0873294  0.5000030    0.00000       Uiso       1.00
       C28          C  0.5287178  0.5873290  0.5000030    0.00000       Uiso       1.00
       C29          C  0.0287171  0.9126698  0.5000030    0.00000       Uiso       1.00
       C30          C  0.5287178  0.4126702  0.5000030    0.00000       Uiso       1.00
       C31          C  0.9712842  0.0873294  0.5000030    0.00000       Uiso       1.00
       C32          C  0.4712836  0.5873290  0.5000030    0.00000       Uiso       1.00
       C33          C  0.9822688  0.8723850  0.5000030    0.00000       Uiso       1.00
       C34          C  0.4822682  0.3723854  0.5000030    0.00000       Uiso       1.00
       C35          C  0.0177324  0.1276142  0.5000030    0.00000       Uiso       1.00
       C36          C  0.5177331  0.6276138  0.5000030    0.00000       Uiso       1.00
       C37          C  0.0177324  0.8723850  0.5000030    0.00000       Uiso       1.00
       C38          C  0.5177331  0.3723854  0.5000030    0.00000       Uiso       1.00
       C39          C  0.9822688  0.1276142  0.5000030    0.00000       Uiso       1.00
       C40          C  0.4822682  0.6276138  0.5000030    0.00000       Uiso       1.00
        H1          H  0.9671158  0.8470483  0.5000030    0.00000       Uiso       1.00
        H2          H  0.4671152  0.3470488  0.5000030    0.00000       Uiso       1.00
        H3          H  0.0328855  0.1529509  0.5000030    0.00000       Uiso       1.00
        H4          H  0.5328861  0.6529505  0.5000030    0.00000       Uiso       1.00
        H5          H  0.0328855  0.8470483  0.5000030    0.00000       Uiso       1.00
        H6          H  0.5328861  0.3470488  0.5000030    0.00000       Uiso       1.00
        H7          H  0.9671158  0.1529509  0.5000030    0.00000       Uiso       1.00
        H8          H  0.4671152  0.6529505  0.5000030    0.00000       Uiso       1.00
        N1          N  0.4455428  0.4999996  0.5000030    0.00000       Uiso       1.00
        N2          N  0.9455435  0.0000000  0.5000030    0.00000       Uiso       1.00
        N3          N  0.5544585  0.4999996  0.5000030    0.00000       Uiso       1.00
        N4          N  0.0544578  0.0000000  0.5000030    0.00000       Uiso       1.00
       C41          C  0.4257088  0.4662456  0.5000030    0.00000       Uiso       1.00
       C42          C  0.9257095  0.9662452  0.5000030    0.00000       Uiso       1.00
       C43          C  0.5742924  0.5337536  0.5000030    0.00000       Uiso       1.00
       C44          C  0.0742918  0.0337540  0.5000030    0.00000       Uiso       1.00
       C45          C  0.5742924  0.4662456  0.5000030    0.00000       Uiso       1.00
       C46          C  0.0742918  0.9662452  0.5000030    0.00000       Uiso       1.00
       C47          C  0.4257088  0.5337536  0.5000030    0.00000       Uiso       1.00
       C48          C  0.9257095  0.0337540  0.5000030    0.00000       Uiso       1.00
       C49          C  0.3914344  0.4791584  0.5000030    0.00000       Uiso       1.00
       C50          C  0.8914350  0.9791580  0.5000030    0.00000       Uiso       1.00
       C51          C  0.6085669  0.5208408  0.5000030    0.00000       Uiso       1.00
       C52          C  0.1085663  0.0208412  0.5000030    0.00000       Uiso       1.00
       C53          C  0.6085669  0.4791584  0.5000030    0.00000       Uiso       1.00
       C54          C  0.1085663  0.9791580  0.5000030    0.00000       Uiso       1.00
       C55          C  0.3914344  0.5208408  0.5000030    0.00000       Uiso       1.00
       C56          C  0.8914350  0.0208412  0.5000030    0.00000       Uiso       1.00
        H9          H  0.3698786  0.4613553  0.5000030    0.00000       Uiso       1.00
       H10          H  0.8698793  0.9613549  0.5000030    0.00000       Uiso       1.00
       H11          H  0.6301226  0.5386439  0.5000030    0.00000       Uiso       1.00
       H12          H  0.1301220  0.0386443  0.5000030    0.00000       Uiso       1.00
       H13          H  0.6301226  0.4613553  0.5000030    0.00000       Uiso       1.00
       H14          H  0.1301220  0.9613549  0.5000030    0.00000       Uiso       1.00
       H15          H  0.3698786  0.5386439  0.5000030    0.00000       Uiso       1.00
       H16          H  0.8698793  0.0386443  0.5000030    0.00000       Uiso       1.00
       C57          C  0.9364237  0.9252683  0.5000030    0.00000       Uiso       1.00
       C58          C  0.4364231  0.4252687  0.5000030    0.00000       Uiso       1.00
       C59          C  0.0635775  0.0747309  0.5000030    0.00000       Uiso       1.00
       C60          C  0.5635782  0.5747305  0.5000030    0.00000       Uiso       1.00
       C61          C  0.0635775  0.9252683  0.5000030    0.00000       Uiso       1.00
       C62          C  0.5635782  0.4252687  0.5000030    0.00000       Uiso       1.00
       C63          C  0.9364237  0.0747309  0.5000030    0.00000       Uiso       1.00
       C64          C  0.4364231  0.5747305  0.5000030    0.00000       Uiso       1.00
       C65          C  0.9106601  0.8949907  0.5000030    0.00000       Uiso       1.00
       C66          C  0.4106594  0.3949910  0.5000030    0.00000       Uiso       1.00
       C67          C  0.0893412  0.1050086  0.5000030    0.00000       Uiso       1.00
       C68          C  0.5893418  0.6050082  0.5000030    0.00000       Uiso       1.00
       C69          C  0.0893412  0.8949907  0.5000030    0.00000       Uiso       1.00
       C70          C  0.5893418  0.3949910  0.5000030    0.00000       Uiso       1.00
       C71          C  0.9106601  0.1050086  0.5000030    0.00000       Uiso       1.00
       C72          C  0.4106594  0.6050082  0.5000030    0.00000       Uiso       1.00
       C73          C  0.3976661  0.3796866  0.6802843    0.00000       Uiso       1.00
       C74          C  0.8976667  0.8796862  0.6802843    0.00000       Uiso       1.00
       C75          C  0.6023352  0.6203126  0.6802843    0.00000       Uiso       1.00
       C76          C  0.1023345  0.1203130  0.6802843    0.00000       Uiso       1.00
       C77          C  0.6023352  0.3796866  0.3197218    0.00000       Uiso       1.00
       C78          C  0.1023345  0.8796862  0.3197218    0.00000       Uiso       1.00
       C79          C  0.3976661  0.6203126  0.3197218    0.00000       Uiso       1.00
       C80          C  0.8976667  0.1203130  0.3197218    0.00000       Uiso       1.00
       C81          C  0.6023352  0.6203126  0.3197218    0.00000       Uiso       1.00
       C82          C  0.1023345  0.1203130  0.3197218    0.00000       Uiso       1.00
       C83          C  0.3976661  0.3796866  0.3197218    0.00000       Uiso       1.00
       C84          C  0.8976667  0.8796862  0.3197218    0.00000       Uiso       1.00
       C85          C  0.3976661  0.6203126  0.6802843    0.00000       Uiso       1.00
       C86          C  0.8976667  0.1203130  0.6802843    0.00000       Uiso       1.00
       C87          C  0.6023352  0.3796866  0.6802843    0.00000       Uiso       1.00
       C88          C  0.1023345  0.8796862  0.6802843    0.00000       Uiso       1.00
       H17          H  0.9068398  0.8903723  0.8121814    0.00000       Uiso       1.00
       H18          H  0.4068392  0.3903728  0.8121814    0.00000       Uiso       1.00
       H19          H  0.0931614  0.1096268  0.8121814    0.00000       Uiso       1.00
       H20          H  0.5931621  0.6096264  0.8121814    0.00000       Uiso       1.00
       H21          H  0.0931614  0.8903723  0.1878246    0.00000       Uiso       1.00
       H22          H  0.5931621  0.3903728  0.1878246    0.00000       Uiso       1.00
       H23          H  0.9068398  0.1096268  0.1878246    0.00000       Uiso       1.00
       H24          H  0.4068392  0.6096264  0.1878246    0.00000       Uiso       1.00
       H25          H  0.0931614  0.1096268  0.1878246    0.00000       Uiso       1.00
       H26          H  0.5931621  0.6096264  0.1878246    0.00000       Uiso       1.00
       H27          H  0.9068398  0.8903723  0.1878246    0.00000       Uiso       1.00
       H28          H  0.4068392  0.3903728  0.1878246    0.00000       Uiso       1.00
       H29          H  0.9068398  0.1096268  0.8121814    0.00000       Uiso       1.00
       H30          H  0.4068392  0.6096264  0.8121814    0.00000       Uiso       1.00
       H31          H  0.0931614  0.8903723  0.8121814    0.00000       Uiso       1.00
       H32          H  0.5931621  0.3903728  0.8121814    0.00000       Uiso       1.00
       C89          C  0.8719792  0.8495409  0.6799041    0.00000       Uiso       1.00
       C90          C  0.3719786  0.3495414  0.6799041    0.00000       Uiso       1.00
       C91          C  0.1280220  0.1504582  0.6799041    0.00000       Uiso       1.00
       C92          C  0.6280227  0.6504579  0.6799041    0.00000       Uiso       1.00
       C93          C  0.1280220  0.8495409  0.3201019    0.00000       Uiso       1.00
       C94          C  0.6280227  0.3495414  0.3201019    0.00000       Uiso       1.00
       C95          C  0.8719792  0.1504582  0.3201019    0.00000       Uiso       1.00
       C96          C  0.3719786  0.6504579  0.3201019    0.00000       Uiso       1.00
       C97          C  0.1280220  0.1504582  0.3201019    0.00000       Uiso       1.00
       C98          C  0.6280227  0.6504579  0.3201019    0.00000       Uiso       1.00
       C99          C  0.8719792  0.8495409  0.3201019    0.00000       Uiso       1.00
      C100          C  0.3719786  0.3495414  0.3201019    0.00000       Uiso       1.00
      C101          C  0.8719792  0.1504582  0.6799041    0.00000       Uiso       1.00
      C102          C  0.3719786  0.6504579  0.6799041    0.00000       Uiso       1.00
      C103          C  0.1280220  0.8495409  0.6799041    0.00000       Uiso       1.00
      C104          C  0.6280227  0.3495414  0.6799041    0.00000       Uiso       1.00
       H33          H  0.8626973  0.8384800  0.8104932    0.00000       Uiso       1.00
       H34          H  0.3626966  0.3384804  0.8104932    0.00000       Uiso       1.00
       H35          H  0.1373040  0.1615192  0.8104932    0.00000       Uiso       1.00
       H36          H  0.6373047  0.6615188  0.8104932    0.00000       Uiso       1.00
       H37          H  0.1373040  0.8384800  0.1895128    0.00000       Uiso       1.00
       H38          H  0.6373047  0.3384804  0.1895128    0.00000       Uiso       1.00
       H39          H  0.8626973  0.1615192  0.1895128    0.00000       Uiso       1.00
       H40          H  0.3626966  0.6615188  0.1895128    0.00000       Uiso       1.00
       H41          H  0.1373040  0.1615192  0.1895128    0.00000       Uiso       1.00
       H42          H  0.6373047  0.6615188  0.1895128    0.00000       Uiso       1.00
       H43          H  0.8626973  0.8384800  0.1895128    0.00000       Uiso       1.00
       H44          H  0.3626966  0.3384804  0.1895128    0.00000       Uiso       1.00
       H45          H  0.8626973  0.1615192  0.8104932    0.00000       Uiso       1.00
       H46          H  0.3626966  0.6615188  0.8104932    0.00000       Uiso       1.00
       H47          H  0.1373040  0.8384800  0.8104932    0.00000       Uiso       1.00
       H48          H  0.6373047  0.3384804  0.8104932    0.00000       Uiso       1.00
      C105          C  0.8589643  0.8344960  0.5000030    0.00000       Uiso       1.00
      C106          C  0.3589636  0.3344963  0.5000030    0.00000       Uiso       1.00
      C107          C  0.1410370  0.1655033  0.5000030    0.00000       Uiso       1.00
      C108          C  0.6410376  0.6655029  0.5000030    0.00000       Uiso       1.00
      C109          C  0.1410370  0.8344960  0.5000030    0.00000       Uiso       1.00
      C110          C  0.6410376  0.3344963  0.5000030    0.00000       Uiso       1.00
      C111          C  0.8589643  0.1655033  0.5000030    0.00000       Uiso       1.00
      C112          C  0.3589636  0.6655029  0.5000030    0.00000       Uiso       1.00
       H49          H  0.1893675  0.7321160  0.5000030    0.00000       Uiso       1.00
       H50          H  0.6893681  0.2321163  0.5000030    0.00000       Uiso       1.00
       H51          H  0.8106338  0.2678833  0.5000030    0.00000       Uiso       1.00
       H52          H  0.3106332  0.7678829  0.5000030    0.00000       Uiso       1.00
       H53          H  0.8106338  0.7321160  0.5000030    0.00000       Uiso       1.00
       H54          H  0.3106332  0.2321163  0.5000030    0.00000       Uiso       1.00
       H55          H  0.1893675  0.2678833  0.5000030    0.00000       Uiso       1.00
       H56          H  0.6893681  0.7678829  0.5000030    0.00000       Uiso       1.00
       Cu1         Cu  0.5000007  0.4999996  0.5000030    0.00000       Uiso       1.00
       Cu2         Cu  0.0000000  0.0000000  0.5000030    0.00000       Uiso       1.00
        O2          C  0.3000597  0.6870924  0.5000030    0.00000       Uiso       1.00
         H          H  0.2916940  0.6576023  0.5000030    0.00000       Uiso       1.00
        O2          C  0.8000603  0.1870927  0.5000030    0.00000       Uiso       1.00
         H          H  0.7916947  0.1576027  0.5000030    0.00000       Uiso       1.00
        O2          C  0.6999416  0.3129069  0.5000030    0.00000       Uiso       1.00
         H          H  0.7083073  0.3423969  0.5000030    0.00000       Uiso       1.00
        O2          C  0.1999409  0.8129065  0.5000030    0.00000       Uiso       1.00
         H          H  0.2083066  0.8423965  0.5000030    0.00000       Uiso       1.00
        O2          C  0.6999416  0.6870924  0.5000030    0.00000       Uiso       1.00
         H          H  0.7083073  0.6576023  0.5000030    0.00000       Uiso       1.00
        O2          C  0.1999409  0.1870927  0.5000030    0.00000       Uiso       1.00
         H          H  0.2083066  0.1576027  0.5000030    0.00000       Uiso       1.00
        O2          C  0.3000597  0.3129069  0.5000030    0.00000       Uiso       1.00
         H          H  0.2916940  0.3423969  0.5000030    0.00000       Uiso       1.00
        O2          C  0.8000603  0.8129065  0.5000030    0.00000       Uiso       1.00
         H          H  0.7916947  0.8423965  0.5000030    0.00000       Uiso       1.00
        H3          H  0.2317490  0.6796827  0.5000030    0.00000       Uiso       1.00
        H3          H  0.7317497  0.1796831  0.5000030    0.00000       Uiso       1.00
        H3          H  0.7682523  0.3203165  0.5000030    0.00000       Uiso       1.00
        H3          H  0.2682516  0.8203161  0.5000030    0.00000       Uiso       1.00
        H3          H  0.7682523  0.6796827  0.5000030    0.00000       Uiso       1.00
        H3          H  0.2682516  0.1796831  0.5000030    0.00000       Uiso       1.00
        H3          H  0.2317490  0.3203165  0.5000030    0.00000       Uiso       1.00
        H3          H  0.7317497  0.8203161  0.5000030    0.00000       Uiso       1.00
        B1          N  0.3343787  0.6943878  0.5000030    0.00000       Uiso       1.00
        B1          N  0.8343794  0.1943882  0.5000030    0.00000       Uiso       1.00
        B1          N  0.6656225  0.3056115  0.5000030    0.00000       Uiso       1.00
        B1          N  0.1656219  0.8056111  0.5000030    0.00000       Uiso       1.00
        B1          N  0.6656225  0.6943878  0.5000030    0.00000       Uiso       1.00
        B1          N  0.1656219  0.1943882  0.5000030    0.00000       Uiso       1.00
        B1          N  0.3343787  0.3056115  0.5000030    0.00000       Uiso       1.00
        B1          N  0.8343794  0.8056111  0.5000030    0.00000       Uiso       1.00
        N1          N  0.0000000  0.9359819  0.5000030    0.00000       Uiso       1.00
        N1          N  0.5000007  0.4359823  0.5000030    0.00000       Uiso       1.00
        N1          N  0.0000000  0.0640173  0.5000030    0.00000       Uiso       1.00
        N1          N  0.5000007  0.5640169  0.5000030    0.00000       Uiso       1.00
