data_4PE-1P-oxi
_audit_creation_date              0000-00-00
_audit_creation_method            'LanYouShi'
_symmetry_space_group_name_H-M    'P1'
_cell_length_a                    38.7690010
_cell_length_b                    38.7690010
_cell_length_c                    5.3490000
_cell_angle_alpha                 90.0000000
_cell_angle_beta                  90.0000000
_cell_angle_gamma                 120.0000000
loop_
_atom_site_label
_atom_site_type_symbol
_atom_site_fract_x
_atom_site_fract_y
_atom_site_fract_z
_atom_site_U_iso_or_equiv
_atom_site_adp_type
_atom_site_occupancy
        C1          C  0.4814663  0.4814288  0.5322900    0.00000       Uiso       1.00
        C2          C  0.5185715  0.0000375  0.5322900    0.00000       Uiso       1.00
        C3          C  0.9999629  0.5185341  0.5322900    0.00000       Uiso       1.00
        C4          C  0.5185341  0.5185715  0.5322900    0.00000       Uiso       1.00
        C5          C  0.4814288  0.9999629  0.5322900    0.00000       Uiso       1.00
        C6          C  0.0000375  0.4814663  0.5322900    0.00000       Uiso       1.00
        C7          C  0.4438892  0.4795456  0.5310088    0.00000       Uiso       1.00
        C8          C  0.5204548  0.9643440  0.5310088    0.00000       Uiso       1.00
        C9          C  0.0356563  0.5561112  0.5310088    0.00000       Uiso       1.00
       C10          C  0.5561112  0.5204548  0.5310088    0.00000       Uiso       1.00
       C11          C  0.4795456  0.0356563  0.5310088    0.00000       Uiso       1.00
       C12          C  0.9643440  0.4438893  0.5310088    0.00000       Uiso       1.00
       C13          C  0.4153017  0.4578105  0.3438479    0.00000       Uiso       1.00
       C14          C  0.5421899  0.9574916  0.3438479    0.00000       Uiso       1.00
       C15          C  0.0425087  0.5846986  0.3438479    0.00000       Uiso       1.00
       C16          C  0.5846986  0.5421899  0.3438479    0.00000       Uiso       1.00
       C17          C  0.4578105  0.0425088  0.3438479    0.00000       Uiso       1.00
       C18          C  0.9574916  0.4153017  0.3438479    0.00000       Uiso       1.00
       C19          C  0.3783964  0.4565051  0.3371290    0.00000       Uiso       1.00
       C20          C  0.5434952  0.9218916  0.3371290    0.00000       Uiso       1.00
       C21          C  0.0781087  0.6216040  0.3371290    0.00000       Uiso       1.00
       C22          C  0.6216040  0.5434952  0.3371290    0.00000       Uiso       1.00
       C23          C  0.4565051  0.0781087  0.3371290    0.00000       Uiso       1.00
       C24          C  0.9218916  0.3783964  0.3371290    0.00000       Uiso       1.00
       C25          C  0.3689184  0.4769984  0.5182556    0.00000       Uiso       1.00
       C26          C  0.5230019  0.8919203  0.5182556    0.00000       Uiso       1.00
       C27          C  0.1080800  0.6310820  0.5182556    0.00000       Uiso       1.00
       C28          C  0.6310820  0.5230019  0.5182556    0.00000       Uiso       1.00
       C29          C  0.4769984  0.1080801  0.5182556    0.00000       Uiso       1.00
       C30          C  0.8919203  0.3689184  0.5182556    0.00000       Uiso       1.00
       C31          C  0.3970991  0.4985294  0.7058421    0.00000       Uiso       1.00
       C32          C  0.5014710  0.8985701  0.7058421    0.00000       Uiso       1.00
       C33          C  0.1014303  0.6029013  0.7058421    0.00000       Uiso       1.00
       C34          C  0.6029012  0.5014709  0.7058421    0.00000       Uiso       1.00
       C35          C  0.4985294  0.1014303  0.7058421    0.00000       Uiso       1.00
       C36          C  0.8985701  0.3970991  0.7058421    0.00000       Uiso       1.00
       C37          C  0.4337365  0.4993226  0.7133673    0.00000       Uiso       1.00
       C38          C  0.5006778  0.9344143  0.7133673    0.00000       Uiso       1.00
       C39          C  0.0655860  0.5662639  0.7133673    0.00000       Uiso       1.00
       C40          C  0.5662639  0.5006778  0.7133673    0.00000       Uiso       1.00
       C41          C  0.4993225  0.0655860  0.7133673    0.00000       Uiso       1.00
       C42          C  0.9344143  0.4337365  0.7133673    0.00000       Uiso       1.00
        H1          H  0.4531658  0.5147051  0.8529805    0.00000       Uiso       1.00
        H2          H  0.4852952  0.9384611  0.8529805    0.00000       Uiso       1.00
        H3          H  0.0615393  0.5468345  0.8529805    0.00000       Uiso       1.00
        H4          H  0.5468345  0.4852952  0.8529805    0.00000       Uiso       1.00
        H5          H  0.5147051  0.0615393  0.8529805    0.00000       Uiso       1.00
        H6          H  0.9384611  0.4531659  0.8529805    0.00000       Uiso       1.00
       C43          C  0.4797508  0.4439513  0.5273445    0.00000       Uiso       1.00
       C44          C  0.5560491  0.0357995  0.5273445    0.00000       Uiso       1.00
       C45          C  0.9642009  0.5202495  0.5273445    0.00000       Uiso       1.00
       C46          C  0.5202496  0.5560490  0.5273445    0.00000       Uiso       1.00
       C47          C  0.4439513  0.9642009  0.5273445    0.00000       Uiso       1.00
       C48          C  0.0357995  0.4797508  0.5273445    0.00000       Uiso       1.00
       C49          C  0.4578684  0.4143645  0.7089379    0.00000       Uiso       1.00
       C50          C  0.5856359  0.0435039  0.7089379    0.00000       Uiso       1.00
       C51          C  0.9564964  0.5421320  0.7089379    0.00000       Uiso       1.00
       C52          C  0.5421320  0.5856360  0.7089379    0.00000       Uiso       1.00
       C53          C  0.4143645  0.9564965  0.7089379    0.00000       Uiso       1.00
       C54          C  0.0435039  0.4578684  0.7089379    0.00000       Uiso       1.00
       C55          C  0.4561417  0.3772325  0.7031739    0.00000       Uiso       1.00
       C56          C  0.6227679  0.0789093  0.7031739    0.00000       Uiso       1.00
       C57          C  0.9210911  0.5438586  0.7031739    0.00000       Uiso       1.00
       C58          C  0.5438586  0.6227679  0.7031739    0.00000       Uiso       1.00
       C59          C  0.3772325  0.9210911  0.7031739    0.00000       Uiso       1.00
       C60          C  0.0789093  0.4561417  0.7031739    0.00000       Uiso       1.00
       C61          C  0.4767044  0.3687822  0.5177956    0.00000       Uiso       1.00
       C62          C  0.6312183  0.1079223  0.5177956    0.00000       Uiso       1.00
       C63          C  0.8920780  0.5232959  0.5177956    0.00000       Uiso       1.00
       C64          C  0.5232959  0.6312182  0.5177956    0.00000       Uiso       1.00
       C65          C  0.3687822  0.8920780  0.5177956    0.00000       Uiso       1.00
       C66          C  0.1079223  0.4767044  0.5177956    0.00000       Uiso       1.00
       C67          C  0.4980180  0.3978496  0.3333377    0.00000       Uiso       1.00
       C68          C  0.6021508  0.1001684  0.3333377    0.00000       Uiso       1.00
       C69          C  0.8998320  0.5019824  0.3333377    0.00000       Uiso       1.00
       C70          C  0.5019824  0.6021508  0.3333377    0.00000       Uiso       1.00
       C71          C  0.3978496  0.8998320  0.3333377    0.00000       Uiso       1.00
       C72          C  0.1001684  0.4980179  0.3333377    0.00000       Uiso       1.00
       C73          C  0.4991864  0.4346482  0.3380431    0.00000       Uiso       1.00
       C74          C  0.5653521  0.0645381  0.3380431    0.00000       Uiso       1.00
       C75          C  0.9354622  0.5008140  0.3380431    0.00000       Uiso       1.00
       C76          C  0.5008140  0.5653521  0.3380431    0.00000       Uiso       1.00
       C77          C  0.4346482  0.9354622  0.3380431    0.00000       Uiso       1.00
       C78          C  0.0645382  0.4991864  0.3380431    0.00000       Uiso       1.00
        N1          N  0.3347316  0.4784882  0.5209924    0.00000       Uiso       1.00
        N2          N  0.5215122  0.8562438  0.5209924    0.00000       Uiso       1.00
        N3          N  0.1437566  0.6652687  0.5209924    0.00000       Uiso       1.00
        N4          N  0.6652687  0.5215122  0.5209924    0.00000       Uiso       1.00
        N5          N  0.4784882  0.1437566  0.5209924    0.00000       Uiso       1.00
        N6          N  0.8562438  0.3347316  0.5209924    0.00000       Uiso       1.00
       C79          C  0.2978409  0.4539681  0.4279316    0.00000       Uiso       1.00
       C80          C  0.5460322  0.8438731  0.4279316    0.00000       Uiso       1.00
       C81          C  0.1561272  0.7021595  0.4279316    0.00000       Uiso       1.00
       C82          C  0.7021595  0.5460322  0.4279316    0.00000       Uiso       1.00
       C83          C  0.4539681  0.1561272  0.4279316    0.00000       Uiso       1.00
       C84          C  0.8438731  0.2978409  0.4279316    0.00000       Uiso       1.00
       C85          C  0.2683510  0.4651875  0.4389103    0.00000       Uiso       1.00
       C86          C  0.5348129  0.8031639  0.4389103    0.00000       Uiso       1.00
       C87          C  0.1968364  0.7316493  0.4389103    0.00000       Uiso       1.00
       C88          C  0.7316493  0.5348129  0.4389103    0.00000       Uiso       1.00
       C89          C  0.4651875  0.1968364  0.4389103    0.00000       Uiso       1.00
       C90          C  0.8031639  0.2683510  0.4389103    0.00000       Uiso       1.00
       C91          C  0.2273081  0.4363498  0.4295764    0.00000       Uiso       1.00
       C92          C  0.5636505  0.7909586  0.4295764    0.00000       Uiso       1.00
       C93          C  0.2090417  0.7726923  0.4295764    0.00000       Uiso       1.00
       C94          C  0.7726922  0.5636505  0.4295764    0.00000       Uiso       1.00
       C95          C  0.4363498  0.2090417  0.4295764    0.00000       Uiso       1.00
       C96          C  0.7909586  0.2273081  0.4295764    0.00000       Uiso       1.00
       C97          C  0.2787750  0.5057153  0.4563868    0.00000       Uiso       1.00
       C98          C  0.4942851  0.7730600  0.4563868    0.00000       Uiso       1.00
       C99          C  0.2269403  0.7212254  0.4563868    0.00000       Uiso       1.00
      C100          C  0.7212254  0.4942850  0.4563868    0.00000       Uiso       1.00
      C101          C  0.5057153  0.2269403  0.4563868    0.00000       Uiso       1.00
      C102          C  0.7730601  0.2787750  0.4563868    0.00000       Uiso       1.00
        N7          N  0.4739291  0.3325183  0.5230243    0.00000       Uiso       1.00
        N8          N  0.6674821  0.1414108  0.5230243    0.00000       Uiso       1.00
        N9          N  0.8585895  0.5260713  0.5230243    0.00000       Uiso       1.00
       N10          N  0.5260713  0.6674821  0.5230243    0.00000       Uiso       1.00
       N11          N  0.3325182  0.8585895  0.5230243    0.00000       Uiso       1.00
       N12          N  0.1414108  0.4739291  0.5230243    0.00000       Uiso       1.00
      C103          C  0.4995763  0.3204923  0.4459518    0.00000       Uiso       1.00
      C104          C  0.6795081  0.1790840  0.4459518    0.00000       Uiso       1.00
      C105          C  0.8209164  0.5004241  0.4459518    0.00000       Uiso       1.00
      C106          C  0.5004241  0.6795081  0.4459518    0.00000       Uiso       1.00
      C107          C  0.3204923  0.8209164  0.4459518    0.00000       Uiso       1.00
      C108          C  0.1790840  0.4995763  0.4459518    0.00000       Uiso       1.00
      C109          C  0.4881352  0.2797089  0.4483878    0.00000       Uiso       1.00
      C110          C  0.7202914  0.2084262  0.4483878    0.00000       Uiso       1.00
      C111          C  0.7915741  0.5118653  0.4483878    0.00000       Uiso       1.00
      C112          C  0.5118652  0.7202914  0.4483878    0.00000       Uiso       1.00
      C113          C  0.2797089  0.7915741  0.4483878    0.00000       Uiso       1.00
      C114          C  0.2084263  0.4881352  0.4483878    0.00000       Uiso       1.00
      C115          C  0.5169511  0.2675022  0.4601154    0.00000       Uiso       1.00
      C116          C  0.7324982  0.2494489  0.4601154    0.00000       Uiso       1.00
      C117          C  0.7505515  0.4830492  0.4601154    0.00000       Uiso       1.00
      C118          C  0.4830492  0.7324981  0.4601154    0.00000       Uiso       1.00
      C119          C  0.2675022  0.7505514  0.4601154    0.00000       Uiso       1.00
      C120          C  0.2494489  0.5169511  0.4601154    0.00000       Uiso       1.00
      C121          C  0.4475681  0.2496111  0.4352781    0.00000       Uiso       1.00
      C122          C  0.7503893  0.1979570  0.4352781    0.00000       Uiso       1.00
      C123          C  0.8020434  0.5524323  0.4352781    0.00000       Uiso       1.00
      C124          C  0.5524323  0.7503893  0.4352781    0.00000       Uiso       1.00
      C125          C  0.2496111  0.8020434  0.4352781    0.00000       Uiso       1.00
      C126          C  0.1979570  0.4475680  0.4352781    0.00000       Uiso       1.00
        H7          H  0.4212810  0.4429629  0.2082967    0.00000       Uiso       1.00
        H8          H  0.5570375  0.9783185  0.2082967    0.00000       Uiso       1.00
        H9          H  0.0216819  0.5787194  0.2082967    0.00000       Uiso       1.00
       H10          H  0.5787194  0.5570375  0.2082967    0.00000       Uiso       1.00
       H11          H  0.4429629  0.0216819  0.2082967    0.00000       Uiso       1.00
       H12          H  0.9783185  0.4212810  0.2082967    0.00000       Uiso       1.00
       H13          H  0.3589975  0.4410398  0.1962122    0.00000       Uiso       1.00
       H14          H  0.5589606  0.9179580  0.1962122    0.00000       Uiso       1.00
       H15          H  0.0820424  0.6410029  0.1962122    0.00000       Uiso       1.00
       H16          H  0.6410029  0.5589605  0.1962122    0.00000       Uiso       1.00
       H17          H  0.4410398  0.0820424  0.1962122    0.00000       Uiso       1.00
       H18          H  0.9179580  0.3589975  0.1962122    0.00000       Uiso       1.00
       H19          H  0.3911068  0.5137437  0.8393140    0.00000       Uiso       1.00
       H20          H  0.4862566  0.8773635  0.8393140    0.00000       Uiso       1.00
       H21          H  0.1226369  0.6088935  0.8393140    0.00000       Uiso       1.00
       H22          H  0.6088935  0.4862566  0.8393140    0.00000       Uiso       1.00
       H23          H  0.5137438  0.1226369  0.8393140    0.00000       Uiso       1.00
       H24          H  0.8773634  0.3911068  0.8393140    0.00000       Uiso       1.00
       H25          H  0.4429978  0.4196427  0.8478025    0.00000       Uiso       1.00
       H26          H  0.5803577  0.0233551  0.8478025    0.00000       Uiso       1.00
       H27          H  0.9766452  0.5570025  0.8478025    0.00000       Uiso       1.00
       H28          H  0.5570025  0.5803577  0.8478025    0.00000       Uiso       1.00
       H29          H  0.4196427  0.9766453  0.8478025    0.00000       Uiso       1.00
       H30          H  0.0233551  0.4429978  0.8478025    0.00000       Uiso       1.00
       H31          H  0.4399590  0.3564593  0.8368311    0.00000       Uiso       1.00
       H32          H  0.6435410  0.0834997  0.8368311    0.00000       Uiso       1.00
       H33          H  0.9165007  0.5600414  0.8368311    0.00000       Uiso       1.00
       H34          H  0.5600414  0.6435410  0.8368311    0.00000       Uiso       1.00
       H35          H  0.3564593  0.9165007  0.8368311    0.00000       Uiso       1.00
       H36          H  0.0834997  0.4399590  0.8368311    0.00000       Uiso       1.00
       H37          H  0.5123614  0.3923888  0.1919552    0.00000       Uiso       1.00
       H38          H  0.6076116  0.1199727  0.1919552    0.00000       Uiso       1.00
       H39          H  0.8800277  0.4876390  0.1919552    0.00000       Uiso       1.00
       H40          H  0.4876389  0.6076116  0.1919552    0.00000       Uiso       1.00
       H41          H  0.3923888  0.8800277  0.1919552    0.00000       Uiso       1.00
       H42          H  0.1199726  0.5123614  0.1919552    0.00000       Uiso       1.00
       H43          H  0.5143123  0.4547310  0.2008447    0.00000       Uiso       1.00
       H44          H  0.5452693  0.0595813  0.2008447    0.00000       Uiso       1.00
       H45          H  0.9404190  0.4856880  0.2008447    0.00000       Uiso       1.00
       H46          H  0.4856880  0.5452693  0.2008447    0.00000       Uiso       1.00
       H47          H  0.4547310  0.9404190  0.2008447    0.00000       Uiso       1.00
       H48          H  0.0595813  0.5143123  0.2008447    0.00000       Uiso       1.00
        O1          O  0.2895523  0.4209515  0.3357408    0.00000       Uiso       1.00
        O2          O  0.5790488  0.8686011  0.3357408    0.00000       Uiso       1.00
        O3          O  0.1313993  0.7104481  0.3357408    0.00000       Uiso       1.00
        O4          O  0.7104481  0.5790489  0.3357408    0.00000       Uiso       1.00
        O5          O  0.4209515  0.1313993  0.3357408    0.00000       Uiso       1.00
        O6          O  0.8686011  0.2895523  0.3357408    0.00000       Uiso       1.00
       H49          H  0.2182183  0.4066486  0.4186433    0.00000       Uiso       1.00
       H50          H  0.5933517  0.8115700  0.4186433    0.00000       Uiso       1.00
       H51          H  0.1884303  0.7817820  0.4186433    0.00000       Uiso       1.00
       H52          H  0.7817821  0.5933517  0.4186433    0.00000       Uiso       1.00
       H53          H  0.4066486  0.1884303  0.4186433    0.00000       Uiso       1.00
       H54          H  0.8115700  0.2182183  0.4186433    0.00000       Uiso       1.00
       H55          H  0.3080020  0.5277532  0.4641137    0.00000       Uiso       1.00
       H56          H  0.4722472  0.7802492  0.4641137    0.00000       Uiso       1.00
       H57          H  0.2197511  0.6919984  0.4641137    0.00000       Uiso       1.00
       H58          H  0.6919984  0.4722472  0.4641137    0.00000       Uiso       1.00
       H59          H  0.5277531  0.2197511  0.4641137    0.00000       Uiso       1.00
       H60          H  0.7802492  0.3080020  0.4641137    0.00000       Uiso       1.00
        O7          O  0.5340285  0.3457888  0.3762515    0.00000       Uiso       1.00
        O8          O  0.6542116  0.1882397  0.3762515    0.00000       Uiso       1.00
        O9          O  0.8117607  0.4659718  0.3762515    0.00000       Uiso       1.00
       O10          O  0.4659718  0.6542115  0.3762515    0.00000       Uiso       1.00
       O11          O  0.3457888  0.8117606  0.3762515    0.00000       Uiso       1.00
       O12          O  0.1882398  0.5340286  0.3762515    0.00000       Uiso       1.00
       H61          H  0.5466509  0.2881029  0.4716941    0.00000       Uiso       1.00
       H62          H  0.7118975  0.2585481  0.4716941    0.00000       Uiso       1.00
       H63          H  0.7414523  0.4533494  0.4716941    0.00000       Uiso       1.00
       H64          H  0.4533494  0.7118975  0.4716941    0.00000       Uiso       1.00
       H65          H  0.2881029  0.7414523  0.4716941    0.00000       Uiso       1.00
       H66          H  0.2585481  0.5466509  0.4716941    0.00000       Uiso       1.00
       H67          H  0.4255727  0.2568548  0.4269618    0.00000       Uiso       1.00
       H68          H  0.7431456  0.1687180  0.4269618    0.00000       Uiso       1.00
       H69          H  0.8312824  0.5744276  0.4269618    0.00000       Uiso       1.00
       H70          H  0.5744277  0.7431456  0.4269618    0.00000       Uiso       1.00
       H71          H  0.2568548  0.8312824  0.4269618    0.00000       Uiso       1.00
       H72          H  0.1687180  0.4255727  0.4269618    0.00000       Uiso       1.00
