data_CuP-TFPh
_audit_creation_date              0000-00-00
_audit_creation_method            'LanYouShi'
_symmetry_space_group_name_H-M    'P1'
_cell_length_a                    38.7831993
_cell_length_b                    33.3573990
_cell_length_c                    6.9425998
_cell_angle_alpha                 90.0000000
_cell_angle_beta                  90.0000000
_cell_angle_gamma                 90.0000000
loop_
_atom_site_label
_atom_site_type_symbol
_atom_site_fract_x
_atom_site_fract_y
_atom_site_fract_z
_atom_site_U_iso_or_equiv
_atom_site_adp_type
_atom_site_occupancy
        C1          C  0.2760584  0.7188562  0.5000013    0.00000       Uiso       1.00
        C2          C  0.7760590  0.2188563  0.5000013    0.00000       Uiso       1.00
        C3          C  0.7239426  0.2811435  0.5000013    0.00000       Uiso       1.00
        C4          C  0.2239421  0.7811434  0.5000013    0.00000       Uiso       1.00
        C5          C  0.7239426  0.7188562  0.5000013    0.00000       Uiso       1.00
        C6          C  0.2239421  0.2188563  0.5000013    0.00000       Uiso       1.00
        C7          C  0.2760584  0.2811435  0.5000013    0.00000       Uiso       1.00
        C8          C  0.7760590  0.7811434  0.5000013    0.00000       Uiso       1.00
        C9          C  0.2147132  0.7400369  0.5000013    0.00000       Uiso       1.00
       C10          C  0.7147138  0.2400371  0.5000013    0.00000       Uiso       1.00
       C11          C  0.7852879  0.2599628  0.5000013    0.00000       Uiso       1.00
       C12          C  0.2852873  0.7599626  0.5000013    0.00000       Uiso       1.00
       C13          C  0.7852879  0.7400369  0.5000013    0.00000       Uiso       1.00
       C14          C  0.2852873  0.2400371  0.5000013    0.00000       Uiso       1.00
       C15          C  0.2147132  0.2599628  0.5000013    0.00000       Uiso       1.00
       C16          C  0.7147138  0.7599626  0.5000013    0.00000       Uiso       1.00
       C17          C  0.2404395  0.7095521  0.5000013    0.00000       Uiso       1.00
       C18          C  0.7404401  0.2095523  0.5000013    0.00000       Uiso       1.00
       C19          C  0.7595616  0.2904476  0.5000013    0.00000       Uiso       1.00
       C20          C  0.2595610  0.7904474  0.5000013    0.00000       Uiso       1.00
       C21          C  0.7595616  0.7095521  0.5000013    0.00000       Uiso       1.00
       C22          C  0.2595610  0.2095523  0.5000013    0.00000       Uiso       1.00
       C23          C  0.2404395  0.2904476  0.5000013    0.00000       Uiso       1.00
       C24          C  0.7404401  0.7904474  0.5000013    0.00000       Uiso       1.00
       C25          C  0.9712671  0.9135731  0.5000013    0.00000       Uiso       1.00
       C26          C  0.4712666  0.4135733  0.5000013    0.00000       Uiso       1.00
       C27          C  0.0287340  0.0864266  0.5000013    0.00000       Uiso       1.00
       C28          C  0.5287345  0.5864264  0.5000013    0.00000       Uiso       1.00
       C29          C  0.0287340  0.9135731  0.5000013    0.00000       Uiso       1.00
       C30          C  0.5287345  0.4135733  0.5000013    0.00000       Uiso       1.00
       C31          C  0.9712671  0.0864266  0.5000013    0.00000       Uiso       1.00
       C32          C  0.4712666  0.5864264  0.5000013    0.00000       Uiso       1.00
       C33          C  0.9822588  0.8737099  0.5000013    0.00000       Uiso       1.00
       C34          C  0.4822583  0.3737100  0.5000013    0.00000       Uiso       1.00
       C35          C  0.0177423  0.1262898  0.5000013    0.00000       Uiso       1.00
       C36          C  0.5177429  0.6262897  0.5000013    0.00000       Uiso       1.00
       C37          C  0.0177423  0.8737099  0.5000013    0.00000       Uiso       1.00
       C38          C  0.5177429  0.3737100  0.5000013    0.00000       Uiso       1.00
       C39          C  0.9822588  0.1262898  0.5000013    0.00000       Uiso       1.00
       C40          C  0.4822583  0.6262897  0.5000013    0.00000       Uiso       1.00
        H1          H  0.9670960  0.8486125  0.5000013    0.00000       Uiso       1.00
        H2          H  0.4670954  0.3486127  0.5000013    0.00000       Uiso       1.00
        H3          H  0.0329052  0.1513872  0.5000013    0.00000       Uiso       1.00
        H4          H  0.5329057  0.6513871  0.5000013    0.00000       Uiso       1.00
        H5          H  0.0329052  0.8486125  0.5000013    0.00000       Uiso       1.00
        H6          H  0.5329057  0.3486127  0.5000013    0.00000       Uiso       1.00
        H7          H  0.9670960  0.1513872  0.5000013    0.00000       Uiso       1.00
        H8          H  0.4670954  0.6513871  0.5000013    0.00000       Uiso       1.00
        N1          N  0.4454920  0.4999998  0.5000013    0.00000       Uiso       1.00
        N2          N  0.9454925  0.0000000  0.5000013    0.00000       Uiso       1.00
        N3          N  0.5545091  0.4999998  0.5000013    0.00000       Uiso       1.00
        N4          N  0.0545086  0.0000000  0.5000013    0.00000       Uiso       1.00
       C41          C  0.4256562  0.4665947  0.5000013    0.00000       Uiso       1.00
       C42          C  0.9256567  0.9665946  0.5000013    0.00000       Uiso       1.00
       C43          C  0.5743449  0.5334050  0.5000013    0.00000       Uiso       1.00
       C44          C  0.0743444  0.0334051  0.5000013    0.00000       Uiso       1.00
       C45          C  0.5743449  0.4665947  0.5000013    0.00000       Uiso       1.00
       C46          C  0.0743444  0.9665946  0.5000013    0.00000       Uiso       1.00
       C47          C  0.4256562  0.5334050  0.5000013    0.00000       Uiso       1.00
       C48          C  0.9256567  0.0334051  0.5000013    0.00000       Uiso       1.00
       C49          C  0.3913713  0.4793719  0.5000013    0.00000       Uiso       1.00
       C50          C  0.8913718  0.9793717  0.5000013    0.00000       Uiso       1.00
       C51          C  0.6086298  0.5206279  0.5000013    0.00000       Uiso       1.00
       C52          C  0.1086293  0.0206280  0.5000013    0.00000       Uiso       1.00
       C53          C  0.6086298  0.4793719  0.5000013    0.00000       Uiso       1.00
       C54          C  0.1086293  0.9793717  0.5000013    0.00000       Uiso       1.00
       C55          C  0.3913713  0.5206279  0.5000013    0.00000       Uiso       1.00
       C56          C  0.8913718  0.0206280  0.5000013    0.00000       Uiso       1.00
        H9          H  0.3697950  0.4617480  0.5000013    0.00000       Uiso       1.00
       H10          H  0.8697956  0.9617478  0.5000013    0.00000       Uiso       1.00
       H11          H  0.6302060  0.5382517  0.5000013    0.00000       Uiso       1.00
       H12          H  0.1302055  0.0382519  0.5000013    0.00000       Uiso       1.00
       H13          H  0.6302060  0.4617480  0.5000013    0.00000       Uiso       1.00
       H14          H  0.1302055  0.9617478  0.5000013    0.00000       Uiso       1.00
       H15          H  0.3697950  0.5382517  0.5000013    0.00000       Uiso       1.00
       H16          H  0.8697956  0.0382519  0.5000013    0.00000       Uiso       1.00
       C57          C  0.9363919  0.9260532  0.5000013    0.00000       Uiso       1.00
       C58          C  0.4363914  0.4260533  0.5000013    0.00000       Uiso       1.00
       C59          C  0.0636092  0.0739465  0.5000013    0.00000       Uiso       1.00
       C60          C  0.5636097  0.5739464  0.5000013    0.00000       Uiso       1.00
       C61          C  0.0636092  0.9260532  0.5000013    0.00000       Uiso       1.00
       C62          C  0.5636097  0.4260533  0.5000013    0.00000       Uiso       1.00
       C63          C  0.9363919  0.0739465  0.5000013    0.00000       Uiso       1.00
       C64          C  0.4363914  0.5739464  0.5000013    0.00000       Uiso       1.00
       C65          C  0.9106466  0.8960667  0.5000013    0.00000       Uiso       1.00
       C66          C  0.4106460  0.3960668  0.5000013    0.00000       Uiso       1.00
       C67          C  0.0893545  0.1039330  0.5000013    0.00000       Uiso       1.00
       C68          C  0.5893551  0.6039329  0.5000013    0.00000       Uiso       1.00
       C69          C  0.0893545  0.8960667  0.5000013    0.00000       Uiso       1.00
       C70          C  0.5893551  0.3960668  0.5000013    0.00000       Uiso       1.00
       C71          C  0.9106466  0.1039330  0.5000013    0.00000       Uiso       1.00
       C72          C  0.4106460  0.6039329  0.5000013    0.00000       Uiso       1.00
       C73          C  0.3977352  0.3808374  0.6757662    0.00000       Uiso       1.00
       C74          C  0.8977358  0.8808373  0.6757662    0.00000       Uiso       1.00
       C75          C  0.6022659  0.6191623  0.6757662    0.00000       Uiso       1.00
       C76          C  0.1022653  0.1191625  0.6757662    0.00000       Uiso       1.00
       C77          C  0.6022659  0.3808374  0.3242364    0.00000       Uiso       1.00
       C78          C  0.1022653  0.8808373  0.3242364    0.00000       Uiso       1.00
       C79          C  0.3977352  0.6191623  0.3242364    0.00000       Uiso       1.00
       C80          C  0.8977358  0.1191625  0.3242364    0.00000       Uiso       1.00
       C81          C  0.6022659  0.6191623  0.3242364    0.00000       Uiso       1.00
       C82          C  0.1022653  0.1191625  0.3242364    0.00000       Uiso       1.00
       C83          C  0.3977352  0.3808374  0.3242364    0.00000       Uiso       1.00
       C84          C  0.8977358  0.8808373  0.3242364    0.00000       Uiso       1.00
       C85          C  0.3977352  0.6191623  0.6757662    0.00000       Uiso       1.00
       C86          C  0.8977358  0.1191625  0.6757662    0.00000       Uiso       1.00
       C87          C  0.6022659  0.3808374  0.6757662    0.00000       Uiso       1.00
       C88          C  0.1022653  0.8808373  0.6757662    0.00000       Uiso       1.00
       H17          H  0.9068769  0.8914406  0.8044526    0.00000       Uiso       1.00
       H18          H  0.4068762  0.3914407  0.8044526    0.00000       Uiso       1.00
       H19          H  0.0931243  0.1085591  0.8044526    0.00000       Uiso       1.00
       H20          H  0.5931248  0.6085590  0.8044526    0.00000       Uiso       1.00
       H21          H  0.0931243  0.8914406  0.1955500    0.00000       Uiso       1.00
       H22          H  0.5931248  0.3914407  0.1955500    0.00000       Uiso       1.00
       H23          H  0.9068769  0.1085591  0.1955500    0.00000       Uiso       1.00
       H24          H  0.4068762  0.6085590  0.1955500    0.00000       Uiso       1.00
       H25          H  0.0931243  0.1085591  0.1955500    0.00000       Uiso       1.00
       H26          H  0.5931248  0.6085590  0.1955500    0.00000       Uiso       1.00
       H27          H  0.9068769  0.8914406  0.1955500    0.00000       Uiso       1.00
       H28          H  0.4068762  0.3914407  0.1955500    0.00000       Uiso       1.00
       H29          H  0.9068769  0.1085591  0.8044526    0.00000       Uiso       1.00
       H30          H  0.4068762  0.6085590  0.8044526    0.00000       Uiso       1.00
       H31          H  0.0931243  0.8914406  0.8044526    0.00000       Uiso       1.00
       H32          H  0.5931248  0.3914407  0.8044526    0.00000       Uiso       1.00
       C89          C  0.8722453  0.8507605  0.6753778    0.00000       Uiso       1.00
       C90          C  0.3722447  0.3507607  0.6753778    0.00000       Uiso       1.00
       C91          C  0.1277558  0.1492392  0.6753778    0.00000       Uiso       1.00
       C92          C  0.6277564  0.6492390  0.6753778    0.00000       Uiso       1.00
       C93          C  0.1277558  0.8507605  0.3246248    0.00000       Uiso       1.00
       C94          C  0.6277564  0.3507607  0.3246248    0.00000       Uiso       1.00
       C95          C  0.8722453  0.1492392  0.3246248    0.00000       Uiso       1.00
       C96          C  0.3722447  0.6492390  0.3246248    0.00000       Uiso       1.00
       C97          C  0.1277558  0.1492392  0.3246248    0.00000       Uiso       1.00
       C98          C  0.6277564  0.6492390  0.3246248    0.00000       Uiso       1.00
       C99          C  0.8722453  0.8507605  0.3246248    0.00000       Uiso       1.00
      C100          C  0.3722447  0.3507607  0.3246248    0.00000       Uiso       1.00
      C101          C  0.8722453  0.1492392  0.6753778    0.00000       Uiso       1.00
      C102          C  0.3722447  0.6492390  0.6753778    0.00000       Uiso       1.00
      C103          C  0.1277558  0.8507605  0.6753778    0.00000       Uiso       1.00
      C104          C  0.6277564  0.3507607  0.6753778    0.00000       Uiso       1.00
       H33          H  0.8631127  0.8395640  0.8026279    0.00000       Uiso       1.00
       H34          H  0.3631122  0.3395641  0.8026279    0.00000       Uiso       1.00
       H35          H  0.1368884  0.1604357  0.8026279    0.00000       Uiso       1.00
       H36          H  0.6368889  0.6604356  0.8026279    0.00000       Uiso       1.00
       H37          H  0.1368884  0.8395640  0.1973748    0.00000       Uiso       1.00
       H38          H  0.6368889  0.3395641  0.1973748    0.00000       Uiso       1.00
       H39          H  0.8631127  0.1604357  0.1973748    0.00000       Uiso       1.00
       H40          H  0.3631122  0.6604356  0.1973748    0.00000       Uiso       1.00
       H41          H  0.1368884  0.1604357  0.1973748    0.00000       Uiso       1.00
       H42          H  0.6368889  0.6604356  0.1973748    0.00000       Uiso       1.00
       H43          H  0.8631127  0.8395640  0.1973748    0.00000       Uiso       1.00
       H44          H  0.3631122  0.3395641  0.1973748    0.00000       Uiso       1.00
       H45          H  0.8631127  0.1604357  0.8026279    0.00000       Uiso       1.00
       H46          H  0.3631122  0.6604356  0.8026279    0.00000       Uiso       1.00
       H47          H  0.1368884  0.8395640  0.8026279    0.00000       Uiso       1.00
       H48          H  0.6368889  0.3395641  0.8026279    0.00000       Uiso       1.00
      C105          C  0.8593134  0.8357990  0.5000013    0.00000       Uiso       1.00
      C106          C  0.3593129  0.3357991  0.5000013    0.00000       Uiso       1.00
      C107          C  0.1406876  0.1642008  0.5000013    0.00000       Uiso       1.00
      C108          C  0.6406882  0.6642007  0.5000013    0.00000       Uiso       1.00
      C109          C  0.1406876  0.8357990  0.5000013    0.00000       Uiso       1.00
      C110          C  0.6406882  0.3357991  0.5000013    0.00000       Uiso       1.00
      C111          C  0.8593134  0.1642008  0.5000013    0.00000       Uiso       1.00
      C112          C  0.3593129  0.6642007  0.5000013    0.00000       Uiso       1.00
        F1          F  0.1820471  0.7299981  0.5000013    0.00000       Uiso       1.00
        F2          F  0.6820477  0.2299982  0.5000013    0.00000       Uiso       1.00
        F3          F  0.8179540  0.2700016  0.5000013    0.00000       Uiso       1.00
        F4          F  0.3179534  0.7700015  0.5000013    0.00000       Uiso       1.00
        F5          F  0.8179540  0.7299981  0.5000013    0.00000       Uiso       1.00
        F6          F  0.3179534  0.2299982  0.5000013    0.00000       Uiso       1.00
        F7          F  0.1820471  0.2700016  0.5000013    0.00000       Uiso       1.00
        F8          F  0.6820477  0.7700015  0.5000013    0.00000       Uiso       1.00
       Cu1         Cu  0.5000005  0.4999998  0.5000013    0.00000       Uiso       1.00
       Cu2         Cu  0.0000000  0.0000000  0.5000013    0.00000       Uiso       1.00
        O2          C  0.3005681  0.6872250  0.5000013    0.00000       Uiso       1.00
         H          H  0.2921240  0.6579834  0.5000013    0.00000       Uiso       1.00
        O2          C  0.8005687  0.1872252  0.5000013    0.00000       Uiso       1.00
         H          H  0.7921245  0.1579836  0.5000013    0.00000       Uiso       1.00
        O2          C  0.6994330  0.3127747  0.5000013    0.00000       Uiso       1.00
         H          H  0.7078771  0.3420163  0.5000013    0.00000       Uiso       1.00
        O2          C  0.1994324  0.8127745  0.5000013    0.00000       Uiso       1.00
         H          H  0.2078766  0.8420162  0.5000013    0.00000       Uiso       1.00
        O2          C  0.6994330  0.6872250  0.5000013    0.00000       Uiso       1.00
         H          H  0.7078771  0.6579834  0.5000013    0.00000       Uiso       1.00
        O2          C  0.1994324  0.1872252  0.5000013    0.00000       Uiso       1.00
         H          H  0.2078766  0.1579836  0.5000013    0.00000       Uiso       1.00
        O2          C  0.3005681  0.3127747  0.5000013    0.00000       Uiso       1.00
         H          H  0.2921240  0.3420163  0.5000013    0.00000       Uiso       1.00
        O2          C  0.8005687  0.8127745  0.5000013    0.00000       Uiso       1.00
         H          H  0.7921245  0.8420162  0.5000013    0.00000       Uiso       1.00
        H3          F  0.2319778  0.6713648  0.5000013    0.00000       Uiso       1.00
        H3          F  0.7319783  0.1713650  0.5000013    0.00000       Uiso       1.00
        H3          F  0.7680233  0.3286348  0.5000013    0.00000       Uiso       1.00
        H3          F  0.2680228  0.8286347  0.5000013    0.00000       Uiso       1.00
        H3          F  0.7680233  0.6713648  0.5000013    0.00000       Uiso       1.00
        H3          F  0.2680228  0.1713650  0.5000013    0.00000       Uiso       1.00
        H3          F  0.2319778  0.3286348  0.5000013    0.00000       Uiso       1.00
        H3          F  0.7319783  0.8286347  0.5000013    0.00000       Uiso       1.00
        B1          N  0.3350243  0.6930836  0.5000013    0.00000       Uiso       1.00
        B1          N  0.8350248  0.1930838  0.5000013    0.00000       Uiso       1.00
        B1          N  0.6649768  0.3069161  0.5000013    0.00000       Uiso       1.00
        B1          N  0.1649763  0.8069159  0.5000013    0.00000       Uiso       1.00
        B1          N  0.6649768  0.6930836  0.5000013    0.00000       Uiso       1.00
        B1          N  0.1649763  0.1930838  0.5000013    0.00000       Uiso       1.00
        B1          N  0.3350243  0.3069161  0.5000013    0.00000       Uiso       1.00
        B1          N  0.8350248  0.8069159  0.5000013    0.00000       Uiso       1.00
        N1          N  0.0000000  0.9366353  0.5000013    0.00000       Uiso       1.00
        N1          N  0.5000005  0.4366355  0.5000013    0.00000       Uiso       1.00
        N1          N  0.0000000  0.0633644  0.5000013    0.00000       Uiso       1.00
        N1          N  0.5000005  0.5633643  0.5000013    0.00000       Uiso       1.00
