data_DA-COF
_audit_creation_date              0000-00-00
_audit_creation_method            'LanYouShi'
_symmetry_space_group_name_H-M    'P1'
_cell_length_a                    30.1473007
_cell_length_b                    30.1473007
_cell_length_c                    3.5558000
_cell_angle_alpha                 90.0000000
_cell_angle_beta                  90.0000000
_cell_angle_gamma                 120.0000000
loop_
_atom_site_label
_atom_site_type_symbol
_atom_site_fract_x
_atom_site_fract_y
_atom_site_fract_z
_atom_site_U_iso_or_equiv
_atom_site_adp_type
_atom_site_occupancy
        C1          C  0.7138180  0.3324332  0.5000058    0.00000       Uiso       1.00
        C2          C  0.7146094  0.3806200  0.5000058    0.00000       Uiso       1.00
        C3          C  0.7632422  0.4268675  0.5000058    0.00000       Uiso       1.00
        C4          C  0.8087644  0.4255849  0.5000058    0.00000       Uiso       1.00
        C5          C  0.8079625  0.3793479  0.5000058    0.00000       Uiso       1.00
        C6          C  0.7617042  0.3332705  0.5000058    0.00000       Uiso       1.00
        C1          C  0.6675672  0.3813848  0.5000058    0.00000       Uiso       1.00
        C2          C  0.6193804  0.3339894  0.5000058    0.00000       Uiso       1.00
        C3          C  0.5731329  0.3363747  0.5000058    0.00000       Uiso       1.00
        C4          C  0.5744155  0.3831795  0.5000058    0.00000       Uiso       1.00
        C5          C  0.6206526  0.4286146  0.5000058    0.00000       Uiso       1.00
        C6          C  0.6667299  0.4284337  0.5000058    0.00000       Uiso       1.00
        C1          C  0.6186156  0.2861824  0.5000058    0.00000       Uiso       1.00
        C2          C  0.6660110  0.2853910  0.5000058    0.00000       Uiso       1.00
        C3          C  0.6636257  0.2367582  0.5000058    0.00000       Uiso       1.00
        C4          C  0.6168209  0.1912360  0.5000058    0.00000       Uiso       1.00
        C5          C  0.5713859  0.1920380  0.5000058    0.00000       Uiso       1.00
        C6          C  0.5715667  0.2382962  0.5000058    0.00000       Uiso       1.00
        C1          C  0.3324332  0.7138180  0.5000058    0.00000       Uiso       1.00
        C2          C  0.3806200  0.7146094  0.5000058    0.00000       Uiso       1.00
        C3          C  0.4268675  0.7632422  0.5000058    0.00000       Uiso       1.00
        C4          C  0.4255849  0.8087644  0.5000058    0.00000       Uiso       1.00
        C5          C  0.3793479  0.8079625  0.5000058    0.00000       Uiso       1.00
        C6          C  0.3332705  0.7617042  0.5000058    0.00000       Uiso       1.00
        C1          C  0.3813848  0.6675672  0.5000058    0.00000       Uiso       1.00
        C2          C  0.3339894  0.6193805  0.5000058    0.00000       Uiso       1.00
        C3          C  0.3363747  0.5731329  0.5000058    0.00000       Uiso       1.00
        C4          C  0.3831795  0.5744155  0.5000058    0.00000       Uiso       1.00
        C5          C  0.4286146  0.6206526  0.5000058    0.00000       Uiso       1.00
        C6          C  0.4284337  0.6667299  0.5000058    0.00000       Uiso       1.00
        C1          C  0.2861824  0.6186156  0.5000058    0.00000       Uiso       1.00
        C2          C  0.2853910  0.6660110  0.5000058    0.00000       Uiso       1.00
        C3          C  0.2367582  0.6636257  0.5000058    0.00000       Uiso       1.00
        C4          C  0.1912360  0.6168209  0.5000058    0.00000       Uiso       1.00
        C5          C  0.1920380  0.5713859  0.5000058    0.00000       Uiso       1.00
        C6          C  0.2382962  0.5715667  0.5000058    0.00000       Uiso       1.00
        O1          O  0.8557425  0.3865543  0.5000058    0.00000       Uiso       1.00
        O1          O  0.6134462  0.4691882  0.5000058    0.00000       Uiso       1.00
        O1          O  0.5308123  0.1442580  0.5000058    0.00000       Uiso       1.00
        O1          O  0.3865543  0.8557425  0.5000058    0.00000       Uiso       1.00
        O1          O  0.4691882  0.6134462  0.5000058    0.00000       Uiso       1.00
        O1          O  0.1442580  0.5308123  0.5000058    0.00000       Uiso       1.00
        B1          B  0.8883129  0.4414123  0.5000058    0.00000       Uiso       1.00
        B1          B  0.5585881  0.4469006  0.5000058    0.00000       Uiso       1.00
        B1          B  0.5530998  0.1116875  0.5000058    0.00000       Uiso       1.00
        B1          B  0.4414123  0.8883129  0.5000058    0.00000       Uiso       1.00
        B1          B  0.4469006  0.5585881  0.5000058    0.00000       Uiso       1.00
        B1          B  0.1116875  0.5530998  0.5000058    0.00000       Uiso       1.00
        O2          O  0.8571299  0.4653062  0.5000058    0.00000       Uiso       1.00
        O2          O  0.5346943  0.3918237  0.5000058    0.00000       Uiso       1.00
        O2          O  0.6081766  0.1428705  0.5000058    0.00000       Uiso       1.00
        O2          O  0.4653062  0.8571299  0.5000058    0.00000       Uiso       1.00
        O2          O  0.3918238  0.5346943  0.5000058    0.00000       Uiso       1.00
        O2          O  0.1428705  0.6081766  0.5000058    0.00000       Uiso       1.00
        H1          H  0.7679567  0.4626144  0.5000058    0.00000       Uiso       1.00
        H2          H  0.5373860  0.3053422  0.5000058    0.00000       Uiso       1.00
        H3          H  0.6946583  0.2320438  0.5000058    0.00000       Uiso       1.00
        H4          H  0.7653793  0.3016141  0.5000058    0.00000       Uiso       1.00
        H5          H  0.6983863  0.4637651  0.5000058    0.00000       Uiso       1.00
        H6          H  0.5362353  0.2346212  0.5000058    0.00000       Uiso       1.00
        H1          H  0.4626144  0.7679566  0.5000058    0.00000       Uiso       1.00
        H2          H  0.3053422  0.5373860  0.5000058    0.00000       Uiso       1.00
        H3          H  0.2320438  0.6946583  0.5000058    0.00000       Uiso       1.00
        H4          H  0.3016141  0.7653793  0.5000058    0.00000       Uiso       1.00
        H5          H  0.4637651  0.6983863  0.5000058    0.00000       Uiso       1.00
        H6          H  0.2346212  0.5362353  0.5000058    0.00000       Uiso       1.00
        C1          C  0.0546999  0.5246860  0.5000058    0.00000       Uiso       1.00
        C2          C  0.4753144  0.5300143  0.5000058    0.00000       Uiso       1.00
        C3          C  0.4699861  0.9453005  0.5000058    0.00000       Uiso       1.00
        C4          C  0.5246860  0.0546999  0.5000058    0.00000       Uiso       1.00
        C5          C  0.5300143  0.4753144  0.5000058    0.00000       Uiso       1.00
        C6          C  0.9453005  0.4699861  0.5000058    0.00000       Uiso       1.00
        C7          C  0.0267434  0.4706943  0.5000058    0.00000       Uiso       1.00
        C8          C  0.5293061  0.5560496  0.5000058    0.00000       Uiso       1.00
        C9          C  0.4439509  0.9732569  0.5000058    0.00000       Uiso       1.00
       C10          C  0.4706943  0.0267434  0.5000058    0.00000       Uiso       1.00
       C11          C  0.5560495  0.5293061  0.5000058    0.00000       Uiso       1.00
       C12          C  0.9732570  0.4439509  0.5000058    0.00000       Uiso       1.00
       C13          C  0.9729960  0.5242303  0.5000058    0.00000       Uiso       1.00
       C14          C  0.4757701  0.4487657  0.5000058    0.00000       Uiso       1.00
       C15          C  0.5512347  0.0270044  0.5000058    0.00000       Uiso       1.00
       C16          C  0.5242303  0.9729960  0.5000058    0.00000       Uiso       1.00
       C17          C  0.4487657  0.4757701  0.5000058    0.00000       Uiso       1.00
       C18          C  0.0270044  0.5512347  0.5000058    0.00000       Uiso       1.00
        N1          N  0.5612049  0.6067857  0.5000058    0.00000       Uiso       1.00
        N2          N  0.3932148  0.9544197  0.5000058    0.00000       Uiso       1.00
        N3          N  0.0455808  0.4387956  0.5000058    0.00000       Uiso       1.00
        N4          N  0.6067856  0.5612049  0.5000058    0.00000       Uiso       1.00
        N5          N  0.9544196  0.3932148  0.5000058    0.00000       Uiso       1.00
        N6          N  0.4387956  0.0455808  0.5000058    0.00000       Uiso       1.00
        S1          S  0.6235571  0.6235571  0.5000058    0.00000       Uiso       1.00
        S2          S  0.3764433  0.0000000  0.5000058    0.00000       Uiso       1.00
        S3          S -0.0000000  0.3764433  0.5000058    0.00000       Uiso       1.00
       H14          H  0.0461826  0.5906088  0.5000058    0.00000       Uiso       1.00
       H14          H  0.4093916  0.4555742  0.5000058    0.00000       Uiso       1.00
       H14          H  0.5444263  0.9538178  0.5000058    0.00000       Uiso       1.00
       H14          H  0.5906088  0.0461826  0.5000058    0.00000       Uiso       1.00
       H14          H  0.4555742  0.4093916  0.5000058    0.00000       Uiso       1.00
       H14          H  0.9538178  0.5444263  0.5000058    0.00000       Uiso       1.00
