data_DAAQ-TFP_COF
_audit_creation_date              0000-00-00
_audit_creation_method            'LanYouShi'
_symmetry_space_group_name_H-M    'P1'
_cell_length_a                    29.8330002
_cell_length_b                    29.8330002
_cell_length_c                    3.5999999
_cell_angle_alpha                 90.0000000
_cell_angle_beta                  90.0000000
_cell_angle_gamma                 60.0000000
loop_
_atom_site_label
_atom_site_type_symbol
_atom_site_fract_x
_atom_site_fract_y
_atom_site_fract_z
_atom_site_U_iso_or_equiv
_atom_site_adp_type
_atom_site_occupancy
        C1          C  0.4069100  0.3624000  1.3888890    0.00000       Uiso       1.00
        N1          N  0.3999600  0.4116300  1.3888890    0.00000       Uiso       1.00
        C2          C  0.4392100  0.4231800  1.3888890    0.00000       Uiso       1.00
        C3          C  0.4894700  0.3868300  1.3888890    0.00000       Uiso       1.00
        C4          C  0.5500600  0.4632000  1.3888890    0.00000       Uiso       1.00
        C5          C  0.5133000  0.4498400  1.3888890    0.00000       Uiso       1.00
        C6          C  0.4630500  0.4867500  1.3888890    0.00000       Uiso       1.00
        C7          C  0.5259100  0.4000500  1.3888890    0.00000       Uiso       1.00
        C8          C  0.4266800  0.4729000  1.3888890    0.00000       Uiso       1.00
        O1          O  0.4065800  0.5687200  1.3888890    0.00000       Uiso       1.00
        H1          H  0.5556400  0.6676800  1.3888890    0.00000       Uiso       1.00
        H2          H  0.4982300  0.6519600  1.3888890    0.00000       Uiso       1.00
        H3          H  0.4356100  0.6287400  1.3888890    0.00000       Uiso       1.00
        H4          H  0.6119000  0.4987900  1.3888890    0.00000       Uiso       1.00
        H5          H  0.3648200  0.4422600  1.3888890    0.00000       Uiso       1.00
        C9          C  0.5930900  0.6376000  1.3888890    0.00000       Uiso       1.00
        N2          N  0.6000400  0.5883700  1.3888890    0.00000       Uiso       1.00
       C10          C  0.5607900  0.5768200  1.3888890    0.00000       Uiso       1.00
       C11          C  0.5105300  0.6131700  1.3888890    0.00000       Uiso       1.00
       C12          C  0.4499400  0.5368000  1.3888890    0.00000       Uiso       1.00
       C13          C  0.4867000  0.5501600  1.3888890    0.00000       Uiso       1.00
       C14          C  0.5369500  0.5132500  1.3888890    0.00000       Uiso       1.00
       C15          C  0.4740900  0.5999500  1.3888890    0.00000       Uiso       1.00
       C16          C  0.5733200  0.5271000  1.3888890    0.00000       Uiso       1.00
        O2          O  0.5934200  0.4312800  1.3888890    0.00000       Uiso       1.00
        H6          H  0.4443600  0.3323200  1.3888890    0.00000       Uiso       1.00
        H7          H  0.5017700  0.3480400  1.3888890    0.00000       Uiso       1.00
        H8          H  0.5643900  0.3712600  1.3888890    0.00000       Uiso       1.00
        H9          H  0.3881000  0.5012100  1.3888890    0.00000       Uiso       1.00
       H10          H  0.6351800  0.5577400  1.3888890    0.00000       Uiso       1.00
       C17          C  0.2306900  0.4069100  1.3888890    0.00000       Uiso       1.00
        N3          N  0.1884100  0.3999600  1.3888890    0.00000       Uiso       1.00
       C18          C  0.1376100  0.4392100  1.3888890    0.00000       Uiso       1.00
       C19          C  0.1237000  0.4894700  1.3888890    0.00000       Uiso       1.00
       C20          C  0.9867400  0.5500600  1.3888890    0.00000       Uiso       1.00
       C21          C  0.0368600  0.5133000  1.3888890    0.00000       Uiso       1.00
       C22          C  0.0502000  0.4630500  1.3888890    0.00000       Uiso       1.00
       C23          C  0.0740400  0.5259100  1.3888890    0.00000       Uiso       1.00
       C24          C  0.1004200  0.4266800  1.3888890    0.00000       Uiso       1.00
        O3          O  0.0247000  0.4065800  1.3888890    0.00000       Uiso       1.00
       H11          H  0.7766800  0.5556400  1.3888890    0.00000       Uiso       1.00
       H12          H  0.8498100  0.4982300  1.3888890    0.00000       Uiso       1.00
       H13          H  0.9356500  0.4356100  1.3888890    0.00000       Uiso       1.00
       H14          H  0.8893100  0.6119000  1.3888890    0.00000       Uiso       1.00
       H15          H  0.1929200  0.3648200  1.3888890    0.00000       Uiso       1.00
       C25          C  0.7693100  0.5930900  1.3888890    0.00000       Uiso       1.00
        N4          N  0.8115900  0.6000400  1.3888890    0.00000       Uiso       1.00
       C26          C  0.8623900  0.5607900  1.3888890    0.00000       Uiso       1.00
       C27          C  0.8763000  0.5105300  1.3888890    0.00000       Uiso       1.00
       C28          C  0.0132600  0.4499400  1.3888890    0.00000       Uiso       1.00
       C29          C  0.9631400  0.4867000  1.3888890    0.00000       Uiso       1.00
       C30          C  0.9498000  0.5369500  1.3888890    0.00000       Uiso       1.00
       C31          C  0.9259599  0.4740900  1.3888890    0.00000       Uiso       1.00
       C32          C  0.8995801  0.5733200  1.3888890    0.00000       Uiso       1.00
        O4          O  0.9753001  0.5934200  1.3888890    0.00000       Uiso       1.00
       H16          H  0.2233200  0.4443600  1.3888890    0.00000       Uiso       1.00
       H17          H  0.1501900  0.5017700  1.3888890    0.00000       Uiso       1.00
       H18          H  0.0643500  0.5643900  1.3888890    0.00000       Uiso       1.00
       H19          H  0.1106900  0.3881000  1.3888890    0.00000       Uiso       1.00
       H20          H  0.8070800  0.6351800  1.3888890    0.00000       Uiso       1.00
       C33          C  0.3624000  0.2306900  1.3888890    0.00000       Uiso       1.00
        N5          N  0.4116300  0.1884100  1.3888890    0.00000       Uiso       1.00
       C34          C  0.4231800  0.1376100  1.3888890    0.00000       Uiso       1.00
       C35          C  0.3868300  0.1237000  1.3888890    0.00000       Uiso       1.00
       C36          C  0.4632000  0.9867400  1.3888890    0.00000       Uiso       1.00
       C37          C  0.4498400  0.0368600  1.3888890    0.00000       Uiso       1.00
       C38          C  0.4867500  0.0502000  1.3888890    0.00000       Uiso       1.00
       C39          C  0.4000500  0.0740400  1.3888890    0.00000       Uiso       1.00
       C40          C  0.4729000  0.1004200  1.3888890    0.00000       Uiso       1.00
        O5          O  0.5687200  0.0247000  1.3888890    0.00000       Uiso       1.00
       H21          H  0.6676800  0.7766800  1.3888890    0.00000       Uiso       1.00
       H22          H  0.6519600  0.8498100  1.3888890    0.00000       Uiso       1.00
       H23          H  0.6287401  0.9356500  1.3888890    0.00000       Uiso       1.00
       H24          H  0.4987900  0.8893100  1.3888890    0.00000       Uiso       1.00
       H25          H  0.4422600  0.1929200  1.3888890    0.00000       Uiso       1.00
       C41          C  0.6376000  0.7693100  1.3888890    0.00000       Uiso       1.00
        N6          N  0.5883700  0.8115900  1.3888890    0.00000       Uiso       1.00
       C42          C  0.5768200  0.8623900  1.3888890    0.00000       Uiso       1.00
       C43          C  0.6131700  0.8763000  1.3888890    0.00000       Uiso       1.00
       C44          C  0.5368000  0.0132600  1.3888890    0.00000       Uiso       1.00
       C45          C  0.5501600  0.9631400  1.3888890    0.00000       Uiso       1.00
       C46          C  0.5132500  0.9498000  1.3888890    0.00000       Uiso       1.00
       C47          C  0.5999500  0.9259600  1.3888890    0.00000       Uiso       1.00
       C48          C  0.5271000  0.8995800  1.3888890    0.00000       Uiso       1.00
        O6          O  0.4312800  0.9753000  1.3888890    0.00000       Uiso       1.00
       H26          H  0.3323200  0.2233200  1.3888890    0.00000       Uiso       1.00
       H27          H  0.3480400  0.1501900  1.3888890    0.00000       Uiso       1.00
       H28          H  0.3712600  0.0643500  1.3888890    0.00000       Uiso       1.00
       H29          H  0.5012100  0.1106900  1.3888890    0.00000       Uiso       1.00
       H30          H  0.5577400  0.8070800  1.3888890    0.00000       Uiso       1.00
       C49          C  0.6831700  0.6137100  1.3888890    0.00000       Uiso       1.00
       C50          C  0.6293400  0.6498000  1.3888890    0.00000       Uiso       1.00
        O7          O  0.6976000  0.5698600  1.3888890    0.00000       Uiso       1.00
       C51          C  0.6137100  0.7031200  1.3888890    0.00000       Uiso       1.00
       C52          C  0.6498000  0.7208600  1.3888890    0.00000       Uiso       1.00
        O8          O  0.5698600  0.7325400  1.3888890    0.00000       Uiso       1.00
       C53          C  0.7031201  0.6831700  1.3888890    0.00000       Uiso       1.00
       C54          C  0.7208600  0.6293400  1.3888890    0.00000       Uiso       1.00
        O9          O  0.7325400  0.6976000  1.3888890    0.00000       Uiso       1.00
       C55          C  0.3168300  0.3862900  1.3888890    0.00000       Uiso       1.00
       C56          C  0.3706600  0.3502000  1.3888890    0.00000       Uiso       1.00
       O10          O  0.3024000  0.4301400  1.3888890    0.00000       Uiso       1.00
       C57          C  0.3862900  0.2968800  1.3888890    0.00000       Uiso       1.00
       C58          C  0.3502000  0.2791400  1.3888890    0.00000       Uiso       1.00
       O11          O  0.4301400  0.2674600  1.3888890    0.00000       Uiso       1.00
       C59          C  0.2968800  0.3168300  1.3888890    0.00000       Uiso       1.00
       C60          C  0.2791400  0.3706600  1.3888890    0.00000       Uiso       1.00
       O12          O  0.2674600  0.3024000  1.3888890    0.00000       Uiso       1.00
