data_DBA-COF_2
_audit_creation_date              0000-00-00
_audit_creation_method            'LanYouShi'
_symmetry_space_group_name_H-M    'P1'
_cell_length_a                    40.6220016
_cell_length_b                    40.6220016
_cell_length_c                    3.5438001
_cell_angle_alpha                 90.0000000
_cell_angle_beta                  90.0000000
_cell_angle_gamma                 120.0000000
loop_
_atom_site_label
_atom_site_type_symbol
_atom_site_fract_x
_atom_site_fract_y
_atom_site_fract_z
_atom_site_U_iso_or_equiv
_atom_site_adp_type
_atom_site_occupancy
        C1          C  0.8567045  0.4452884  0.4999952    0.00000       Uiso       1.00
        C2          C  0.5547103  0.4114160  0.4999952    0.00000       Uiso       1.00
        C3          C  0.5885828  0.1432943  0.4999952    0.00000       Uiso       1.00
        C4          C  0.1432943  0.5547104  0.4999952    0.00000       Uiso       1.00
        C5          C  0.4452884  0.5885828  0.4999952    0.00000       Uiso       1.00
        C6          C  0.4114160  0.8567044  0.4999952    0.00000       Uiso       1.00
        C7          C  0.4452884  0.8567044  0.4999952    0.00000       Uiso       1.00
        C8          C  0.4114160  0.5547104  0.4999952    0.00000       Uiso       1.00
        C9          C  0.1432943  0.5885828  0.4999952    0.00000       Uiso       1.00
       C10          C  0.5547103  0.1432943  0.4999952    0.00000       Uiso       1.00
       C11          C  0.5885828  0.4452884  0.4999952    0.00000       Uiso       1.00
       C12          C  0.8567045  0.4114160  0.4999952    0.00000       Uiso       1.00
       C13          C  0.8229898  0.4462682  0.4999952    0.00000       Uiso       1.00
       C14          C  0.5537306  0.3767217  0.4999952    0.00000       Uiso       1.00
       C15          C  0.6232771  0.1770089  0.4999952    0.00000       Uiso       1.00
       C16          C  0.1770089  0.5537306  0.4999952    0.00000       Uiso       1.00
       C17          C  0.4462682  0.6232771  0.4999952    0.00000       Uiso       1.00
       C18          C  0.3767217  0.8229899  0.4999952    0.00000       Uiso       1.00
       C19          C  0.4462682  0.8229899  0.4999952    0.00000       Uiso       1.00
       C20          C  0.3767217  0.5537306  0.4999952    0.00000       Uiso       1.00
       C21          C  0.1770089  0.6232771  0.4999952    0.00000       Uiso       1.00
       C22          C  0.5537306  0.1770089  0.4999952    0.00000       Uiso       1.00
       C23          C  0.6232771  0.4462682  0.4999952    0.00000       Uiso       1.00
       C24          C  0.8229899  0.3767217  0.4999952    0.00000       Uiso       1.00
       C25          C  0.7532139  0.4124098  0.4999952    0.00000       Uiso       1.00
       C26          C  0.5875889  0.3408040  0.4999952    0.00000       Uiso       1.00
       C27          C  0.6591948  0.2467849  0.4999952    0.00000       Uiso       1.00
       C28          C  0.2467849  0.5875890  0.4999952    0.00000       Uiso       1.00
       C29          C  0.4124098  0.6591948  0.4999952    0.00000       Uiso       1.00
       C30          C  0.3408040  0.7532138  0.4999952    0.00000       Uiso       1.00
       C31          C  0.4124098  0.7532138  0.4999952    0.00000       Uiso       1.00
       C32          C  0.3408040  0.5875890  0.4999952    0.00000       Uiso       1.00
       C33          C  0.2467849  0.6591948  0.4999952    0.00000       Uiso       1.00
       C34          C  0.5875890  0.2467849  0.4999952    0.00000       Uiso       1.00
       C35          C  0.6591948  0.4124098  0.4999952    0.00000       Uiso       1.00
       C36          C  0.7532139  0.3408040  0.4999952    0.00000       Uiso       1.00
       C37          C  0.7236996  0.4126895  0.4999952    0.00000       Uiso       1.00
       C38          C  0.5873093  0.3110101  0.4999952    0.00000       Uiso       1.00
       C39          C  0.6889887  0.2762992  0.4999952    0.00000       Uiso       1.00
       C40          C  0.2762992  0.5873093  0.4999952    0.00000       Uiso       1.00
       C41          C  0.4126895  0.6889887  0.4999952    0.00000       Uiso       1.00
       C42          C  0.3110101  0.7236996  0.4999952    0.00000       Uiso       1.00
       C43          C  0.4126895  0.7236996  0.4999952    0.00000       Uiso       1.00
       C44          C  0.3110101  0.5873093  0.4999952    0.00000       Uiso       1.00
       C45          C  0.2762992  0.6889887  0.4999952    0.00000       Uiso       1.00
       C46          C  0.5873093  0.2762992  0.4999952    0.00000       Uiso       1.00
       C47          C  0.6889887  0.4126895  0.4999952    0.00000       Uiso       1.00
       C48          C  0.7236996  0.3110101  0.4999952    0.00000       Uiso       1.00
       C49          C  0.7883257  0.4116477  0.4999952    0.00000       Uiso       1.00
       C50          C  0.5883511  0.3766780  0.4999952    0.00000       Uiso       1.00
       C51          C  0.6233208  0.2116731  0.4999952    0.00000       Uiso       1.00
       C52          C  0.2116731  0.5883511  0.4999952    0.00000       Uiso       1.00
       C53          C  0.4116477  0.6233208  0.4999952    0.00000       Uiso       1.00
       C54          C  0.3766780  0.7883257  0.4999952    0.00000       Uiso       1.00
       C55          C  0.4116477  0.7883257  0.4999952    0.00000       Uiso       1.00
       C56          C  0.3766780  0.5883511  0.4999952    0.00000       Uiso       1.00
       C57          C  0.2116731  0.6233208  0.4999952    0.00000       Uiso       1.00
       C58          C  0.5883510  0.2116731  0.4999952    0.00000       Uiso       1.00
       C59          C  0.6233208  0.4116477  0.4999952    0.00000       Uiso       1.00
       C60          C  0.7883257  0.3766780  0.4999952    0.00000       Uiso       1.00
        B1          B  0.9154699  0.4577350  0.4999952    0.00000       Uiso       1.00
        B2          B  0.5422639  0.4577350  0.4999952    0.00000       Uiso       1.00
        B3          B  0.5422638  0.0845289  0.4999952    0.00000       Uiso       1.00
        B4          B  0.0845289  0.5422639  0.4999952    0.00000       Uiso       1.00
        B5          B  0.4577350  0.5422639  0.4999952    0.00000       Uiso       1.00
        B6          B  0.4577350  0.9154699  0.4999952    0.00000       Uiso       1.00
       C61          C  0.0399761  0.5199874  0.4999952    0.00000       Uiso       1.00
       C62          C  0.4800113  0.5199874  0.4999952    0.00000       Uiso       1.00
       C63          C  0.4800113  0.9600227  0.4999952    0.00000       Uiso       1.00
       C64          C  0.9600227  0.4800113  0.4999952    0.00000       Uiso       1.00
       C65          C  0.5199874  0.4800113  0.4999952    0.00000       Uiso       1.00
       C66          C  0.5199874  0.0399761  0.4999952    0.00000       Uiso       1.00
       C67          C  0.0198763  0.5397921  0.4999952    0.00000       Uiso       1.00
       C68          C  0.4602067  0.4800830  0.4999952    0.00000       Uiso       1.00
       C69          C  0.5199158  0.9801224  0.4999952    0.00000       Uiso       1.00
       C70          C  0.9801224  0.4602067  0.4999952    0.00000       Uiso       1.00
       C71          C  0.5397921  0.5199158  0.4999952    0.00000       Uiso       1.00
       C72          C  0.4800830  0.0198763  0.4999952    0.00000       Uiso       1.00
       C73          C  0.5397921  0.0198763  0.4999952    0.00000       Uiso       1.00
       C74          C  0.4800830  0.4602067  0.4999952    0.00000       Uiso       1.00
       C75          C  0.9801224  0.5199158  0.4999952    0.00000       Uiso       1.00
       C76          C  0.4602067  0.9801224  0.4999952    0.00000       Uiso       1.00
       C77          C  0.5199158  0.5397921  0.4999952    0.00000       Uiso       1.00
       C78          C  0.0198763  0.4800830  0.4999952    0.00000       Uiso       1.00
        H1          H  0.0350367  0.5706530  0.4999952    0.00000       Uiso       1.00
        H2          H  0.4293458  0.4643825  0.4999952    0.00000       Uiso       1.00
        H3          H  0.5356163  0.9649621  0.4999952    0.00000       Uiso       1.00
        H4          H  0.9649621  0.4293458  0.4999952    0.00000       Uiso       1.00
        H5          H  0.5706530  0.5356163  0.4999952    0.00000       Uiso       1.00
        H6          H  0.4643825  0.0350367  0.4999952    0.00000       Uiso       1.00
        H7          H  0.5706530  0.0350367  0.4999952    0.00000       Uiso       1.00
        H8          H  0.4643825  0.4293458  0.4999952    0.00000       Uiso       1.00
        H9          H  0.9649621  0.5356163  0.4999952    0.00000       Uiso       1.00
       H10          H  0.4293458  0.9649621  0.4999952    0.00000       Uiso       1.00
       H11          H  0.5356163  0.5706530  0.4999952    0.00000       Uiso       1.00
       H12          H  0.0350367  0.4643825  0.4999952    0.00000       Uiso       1.00
       H13          H  0.8239773  0.4733751  0.4999952    0.00000       Uiso       1.00
       H14          H  0.5266237  0.3506022  0.4999952    0.00000       Uiso       1.00
       H15          H  0.6493966  0.1760215  0.4999952    0.00000       Uiso       1.00
       H16          H  0.1760215  0.5266237  0.4999952    0.00000       Uiso       1.00
       H17          H  0.4733751  0.6493966  0.4999952    0.00000       Uiso       1.00
       H18          H  0.3506022  0.8239772  0.4999952    0.00000       Uiso       1.00
       H19          H  0.4733751  0.8239772  0.4999952    0.00000       Uiso       1.00
       H20          H  0.3506022  0.5266237  0.4999952    0.00000       Uiso       1.00
       H21          H  0.1760215  0.6493966  0.4999952    0.00000       Uiso       1.00
       H22          H  0.5266237  0.1760215  0.4999952    0.00000       Uiso       1.00
       H23          H  0.6493966  0.4733751  0.4999952    0.00000       Uiso       1.00
       H24          H  0.8239773  0.3506022  0.4999952    0.00000       Uiso       1.00
        O1          O  0.8928454  0.4767055  0.4999952    0.00000       Uiso       1.00
        O1          O  0.5232933  0.4161399  0.4999952    0.00000       Uiso       1.00
        O1          O  0.5838589  0.1071534  0.4999952    0.00000       Uiso       1.00
        O1          O  0.1071534  0.5232933  0.4999952    0.00000       Uiso       1.00
        O1          O  0.4767055  0.5838589  0.4999952    0.00000       Uiso       1.00
        O1          O  0.4161399  0.8928453  0.4999952    0.00000       Uiso       1.00
        O1          O  0.4767055  0.8928453  0.4999952    0.00000       Uiso       1.00
        O1          O  0.4161399  0.5232933  0.4999952    0.00000       Uiso       1.00
        O1          O  0.1071534  0.5838589  0.4999952    0.00000       Uiso       1.00
        O1          O  0.5232933  0.1071534  0.4999952    0.00000       Uiso       1.00
        O1          O  0.5838589  0.4767055  0.4999952    0.00000       Uiso       1.00
        O1          O  0.8928453  0.4161399  0.4999952    0.00000       Uiso       1.00
