data_DhaTab-23
_audit_creation_date              0000-00-00
_audit_creation_method            'LanYouShi'
_symmetry_space_group_name_H-M    'P1'
_cell_length_a                    37.8343010
_cell_length_b                    37.8343010
_cell_length_c                    3.4000001
_cell_angle_alpha                 90.0000000
_cell_angle_beta                  90.0000000
_cell_angle_gamma                 120.0000000
loop_
_atom_site_label
_atom_site_type_symbol
_atom_site_fract_x
_atom_site_fract_y
_atom_site_fract_z
_atom_site_U_iso_or_equiv
_atom_site_adp_type
_atom_site_occupancy
        N1          N  0.4432363  0.5514392  0.5000000    0.00000       Uiso       1.00
        N2          N  0.4485606  0.8917968  0.5000000    0.00000       Uiso       1.00
        N3          N  0.1082029  0.5567635  0.5000000    0.00000       Uiso       1.00
        N4          N  0.5514392  0.4432363  0.5000000    0.00000       Uiso       1.00
        N5          N  0.8917968  0.4485605  0.5000000    0.00000       Uiso       1.00
        N6          N  0.5567635  0.1082029  0.5000000    0.00000       Uiso       1.00
        C1          C  0.4278998  0.5126265  0.5000000    0.00000       Uiso       1.00
        C2          C  0.4873733  0.9152731  0.5000000    0.00000       Uiso       1.00
        C3          C  0.0847267  0.5720999  0.5000000    0.00000       Uiso       1.00
        C4          C  0.5126265  0.4278998  0.5000000    0.00000       Uiso       1.00
        C5          C  0.9152731  0.4873732  0.5000000    0.00000       Uiso       1.00
        C6          C  0.5720999  0.0847267  0.5000000    0.00000       Uiso       1.00
        C7          C  0.4493069  0.4912194  0.5000000    0.00000       Uiso       1.00
        C8          C  0.5087803  0.9580872  0.5000000    0.00000       Uiso       1.00
        C9          C  0.0419125  0.5506928  0.5000000    0.00000       Uiso       1.00
       C10          C  0.4912194  0.4493069  0.5000000    0.00000       Uiso       1.00
       C11          C  0.9580872  0.5087803  0.5000000    0.00000       Uiso       1.00
       C12          C  0.5506929  0.0419125  0.5000000    0.00000       Uiso       1.00
       C13          C  0.4278323  0.4487778  0.5000000    0.00000       Uiso       1.00
       C14          C  0.5512219  0.9790542  0.5000000    0.00000       Uiso       1.00
       C15          C  0.0209456  0.5721675  0.5000000    0.00000       Uiso       1.00
       C16          C  0.4487779  0.4278323  0.5000000    0.00000       Uiso       1.00
       C17          C  0.9790542  0.5512219  0.5000000    0.00000       Uiso       1.00
       C18          C  0.5721675  0.0209455  0.5000000    0.00000       Uiso       1.00
        H1          H  0.3930404  0.4315900  0.5000000    0.00000       Uiso       1.00
        H2          H  0.5684098  0.9614502  0.5000000    0.00000       Uiso       1.00
        H3          H  0.0385496  0.6069593  0.5000000    0.00000       Uiso       1.00
        H4          H  0.4315900  0.3930404  0.5000000    0.00000       Uiso       1.00
        H5          H  0.9614502  0.5684098  0.5000000    0.00000       Uiso       1.00
        H6          H  0.6069593  0.0385496  0.5000000    0.00000       Uiso       1.00
       C19          C  0.5126944  0.4917488  0.5000000    0.00000       Uiso       1.00
       C20          C  0.5082510  0.0209456  0.5000000    0.00000       Uiso       1.00
       C21          C  0.9790541  0.4873053  0.5000000    0.00000       Uiso       1.00
       C22          C  0.4917488  0.5126944  0.5000000    0.00000       Uiso       1.00
       C23          C  0.0209456  0.5082510  0.5000000    0.00000       Uiso       1.00
       C24          C  0.4873053  0.9790541  0.5000000    0.00000       Uiso       1.00
        O1          O  0.5454883  0.5087929  0.5000000    0.00000       Uiso       1.00
        O2          O  0.4912069  0.0366954  0.5000000    0.00000       Uiso       1.00
        O3          O  0.9633043  0.4545114  0.5000000    0.00000       Uiso       1.00
        O4          O  0.5087929  0.5454883  0.5000000    0.00000       Uiso       1.00
        O5          O  0.0366954  0.4912069  0.5000000    0.00000       Uiso       1.00
        O6          O  0.4545114  0.9633043  0.5000000    0.00000       Uiso       1.00
       C25          C  0.5538346  0.3750234  0.5000000    0.00000       Uiso       1.00
       C26          C  0.6249763  0.1788112  0.5000000    0.00000       Uiso       1.00
       C27          C  0.8211886  0.4461651  0.5000000    0.00000       Uiso       1.00
       C28          C  0.3750234  0.5538346  0.5000000    0.00000       Uiso       1.00
       C29          C  0.1788112  0.6249763  0.5000000    0.00000       Uiso       1.00
       C30          C  0.4461651  0.8211886  0.5000000    0.00000       Uiso       1.00
       C31          C  0.5751624  0.3539474  0.5000000    0.00000       Uiso       1.00
       C32          C  0.6460524  0.2212149  0.5000000    0.00000       Uiso       1.00
       C33          C  0.7787848  0.4248374  0.5000000    0.00000       Uiso       1.00
       C34          C  0.3539474  0.5751624  0.5000000    0.00000       Uiso       1.00
       C35          C  0.2212149  0.6460523  0.5000000    0.00000       Uiso       1.00
       C36          C  0.4248374  0.7787849  0.5000000    0.00000       Uiso       1.00
        H7          H  0.5190421  0.3575239  0.5000000    0.00000       Uiso       1.00
        H8          H  0.6424759  0.1615182  0.5000000    0.00000       Uiso       1.00
        H9          H  0.8384815  0.4809577  0.5000000    0.00000       Uiso       1.00
       H10          H  0.3575238  0.5190421  0.5000000    0.00000       Uiso       1.00
       H11          H  0.1615182  0.6424759  0.5000000    0.00000       Uiso       1.00
       H12          H  0.4809577  0.8384815  0.5000000    0.00000       Uiso       1.00
       H13          H  0.5578694  0.3191549  0.5000000    0.00000       Uiso       1.00
       H14          H  0.6808448  0.2387145  0.5000000    0.00000       Uiso       1.00
       H15          H  0.7612853  0.4421304  0.5000000    0.00000       Uiso       1.00
       H16          H  0.3191549  0.5578693  0.5000000    0.00000       Uiso       1.00
       H17          H  0.2387145  0.6808448  0.5000000    0.00000       Uiso       1.00
       H18          H  0.4421304  0.7612853  0.5000000    0.00000       Uiso       1.00
       C37          C  0.5569698  0.1777473  0.5000000    0.00000       Uiso       1.00
       C38          C  0.8222524  0.3792224  0.5000000    0.00000       Uiso       1.00
       C39          C  0.6207773  0.4430300  0.5000000    0.00000       Uiso       1.00
       C40          C  0.1777473  0.5569698  0.5000000    0.00000       Uiso       1.00
       C41          C  0.3792224  0.8222524  0.5000000    0.00000       Uiso       1.00
       C42          C  0.4430300  0.6207773  0.5000000    0.00000       Uiso       1.00
       C43          C  0.5772889  0.2201392  0.5000000    0.00000       Uiso       1.00
       C44          C  0.7798606  0.3571497  0.5000000    0.00000       Uiso       1.00
       C45          C  0.6428501  0.4227109  0.5000000    0.00000       Uiso       1.00
       C46          C  0.2201392  0.5772889  0.5000000    0.00000       Uiso       1.00
       C47          C  0.3571497  0.7798606  0.5000000    0.00000       Uiso       1.00
       C48          C  0.4227109  0.6428500  0.5000000    0.00000       Uiso       1.00
       H19          H  0.5221801  0.1599562  0.5000000    0.00000       Uiso       1.00
       H20          H  0.8400435  0.3622239  0.5000000    0.00000       Uiso       1.00
       H21          H  0.6377759  0.4778197  0.5000000    0.00000       Uiso       1.00
       H22          H  0.1599562  0.5221800  0.5000000    0.00000       Uiso       1.00
       H23          H  0.3622239  0.8400435  0.5000000    0.00000       Uiso       1.00
       H24          H  0.4778197  0.6377759  0.5000000    0.00000       Uiso       1.00
       H25          H  0.5591780  0.2368111  0.5000000    0.00000       Uiso       1.00
       H26          H  0.7631886  0.3223669  0.5000000    0.00000       Uiso       1.00
       H27          H  0.6776329  0.4408218  0.5000000    0.00000       Uiso       1.00
       H28          H  0.2368112  0.5591780  0.5000000    0.00000       Uiso       1.00
       H29          H  0.3223668  0.7631886  0.5000000    0.00000       Uiso       1.00
       H30          H  0.4408217  0.6776329  0.5000000    0.00000       Uiso       1.00
       C49          C  0.6456982  0.2903808  0.5000000    0.00000       Uiso       1.00
       C50          C  0.7096190  0.3553175  0.5000000    0.00000       Uiso       1.00
       C51          C  0.6446823  0.3543015  0.5000000    0.00000       Uiso       1.00
       C52          C  0.2903808  0.6456982  0.5000000    0.00000       Uiso       1.00
       C53          C  0.3553175  0.7096190  0.5000000    0.00000       Uiso       1.00
       C54          C  0.3543015  0.6446822  0.5000000    0.00000       Uiso       1.00
       C55          C  0.5799806  0.1557616  0.5000000    0.00000       Uiso       1.00
       C56          C  0.8442381  0.4242190  0.5000000    0.00000       Uiso       1.00
       C57          C  0.5757807  0.4200191  0.5000000    0.00000       Uiso       1.00
       C58          C  0.1557616  0.5799806  0.5000000    0.00000       Uiso       1.00
       C59          C  0.4242190  0.8442382  0.5000000    0.00000       Uiso       1.00
       C60          C  0.4200192  0.5757808  0.5000000    0.00000       Uiso       1.00
       C61          C  0.6232351  0.2443662  0.5000000    0.00000       Uiso       1.00
       C62          C  0.7556335  0.3788689  0.5000000    0.00000       Uiso       1.00
       C63          C  0.6211308  0.3767646  0.5000000    0.00000       Uiso       1.00
       C64          C  0.2443662  0.6232351  0.5000000    0.00000       Uiso       1.00
       C65          C  0.3788689  0.7556335  0.5000000    0.00000       Uiso       1.00
       C66          C  0.3767647  0.6211309  0.5000000    0.00000       Uiso       1.00
       C67          C  0.6884089  0.3125957  0.5000000    0.00000       Uiso       1.00
       C68          C  0.6874041  0.3758132  0.5000000    0.00000       Uiso       1.00
       C69          C  0.6241866  0.3115909  0.5000000    0.00000       Uiso       1.00
       C70          C  0.3125957  0.6884089  0.5000000    0.00000       Uiso       1.00
       C71          C  0.3758132  0.6874040  0.5000000    0.00000       Uiso       1.00
       C72          C  0.3115909  0.6241866  0.5000000    0.00000       Uiso       1.00
       H31          H  0.5894033  0.2934993  0.5000000    0.00000       Uiso       1.00
       H32          H  0.7065004  0.2959041  0.5000000    0.00000       Uiso       1.00
       H33          H  0.7040957  0.4105964  0.5000000    0.00000       Uiso       1.00
       H34          H  0.2934993  0.5894034  0.5000000    0.00000       Uiso       1.00
       H35          H  0.2959041  0.7065005  0.5000000    0.00000       Uiso       1.00
       H36          H  0.4105964  0.7040957  0.5000000    0.00000       Uiso       1.00
       H37          H  0.5630909  0.4925271  0.5000000    0.00000       Uiso       1.00
       H38          H  0.5074726  0.0705638  0.5000000    0.00000       Uiso       1.00
       H39          H  0.9294360  0.4369089  0.5000000    0.00000       Uiso       1.00
       H40          H  0.4925271  0.5630909  0.5000000    0.00000       Uiso       1.00
       H41          H  0.0705638  0.5074726  0.5000000    0.00000       Uiso       1.00
       H42          H  0.4369089  0.9294360  0.5000000    0.00000       Uiso       1.00
       H43          H  0.3933594  0.4917343  0.5000000    0.00000       Uiso       1.00
       H44          H  0.5082654  0.9016248  0.5000000    0.00000       Uiso       1.00
       H45          H  0.0983750  0.6066403  0.5000000    0.00000       Uiso       1.00
       H46          H  0.4917343  0.3933594  0.5000000    0.00000       Uiso       1.00
       H47          H  0.9016248  0.5082654  0.5000000    0.00000       Uiso       1.00
       H48          H  0.6066403  0.0983750  0.5000000    0.00000       Uiso       1.00
