data_DhaTab
_audit_creation_date              0000-00-00
_audit_creation_method            'LanYouShi'
_symmetry_space_group_name_H-M    'P1'
_cell_length_a                    39.4508018
_cell_length_b                    39.4508018
_cell_length_c                    3.4000001
_cell_angle_alpha                 90.0000000
_cell_angle_beta                  90.0000000
_cell_angle_gamma                 120.0000000
loop_
_atom_site_label
_atom_site_type_symbol
_atom_site_fract_x
_atom_site_fract_y
_atom_site_fract_z
_atom_site_U_iso_or_equiv
_atom_site_adp_type
_atom_site_occupancy
        C1          N  0.5524315  0.1175268  0.5000000    0.00000       Uiso       1.00
        N1          C  0.5634672  0.0859972  0.5000000    0.00000       Uiso       1.00
        C2          C  0.5319780  0.0434339  0.5000000    0.00000       Uiso       1.00
        C1          N  0.8824731  0.4349046  0.5000000    0.00000       Uiso       1.00
        N1          C  0.9140028  0.4774701  0.5000000    0.00000       Uiso       1.00
        C2          C  0.9565660  0.4885440  0.5000000    0.00000       Uiso       1.00
        C1          N  0.5650954  0.4475685  0.5000000    0.00000       Uiso       1.00
        N1          C  0.5225299  0.4365327  0.5000000    0.00000       Uiso       1.00
        C2          C  0.5114559  0.4680220  0.5000000    0.00000       Uiso       1.00
        C1          N  0.4475685  0.8824731  0.5000000    0.00000       Uiso       1.00
        N1          C  0.4365327  0.9140028  0.5000000    0.00000       Uiso       1.00
        C2          C  0.4680220  0.9565662  0.5000000    0.00000       Uiso       1.00
        C1          N  0.1175268  0.5650953  0.5000000    0.00000       Uiso       1.00
        N1          C  0.0859972  0.5225299  0.5000000    0.00000       Uiso       1.00
        C2          C  0.0434339  0.5114559  0.5000000    0.00000       Uiso       1.00
        C1          N  0.4349046  0.5524315  0.5000000    0.00000       Uiso       1.00
        N1          C  0.4774701  0.5634672  0.5000000    0.00000       Uiso       1.00
        C2          C  0.4885441  0.5319780  0.5000000    0.00000       Uiso       1.00
        C3          C  0.5434938  1.0114645  0.5000000    0.00000       Uiso       1.00
        C4          C  0.5114824  0.9679938  0.5000000    0.00000       Uiso       1.00
        H2          H  0.5756947  1.0199924  0.5000000    0.00000       Uiso       1.00
        H3          O  0.5199817  0.9442675  0.5000000    0.00000       Uiso       1.00
         H          H  0.4162410  0.5024692  0.5000000    0.00000       Uiso       1.00
       C25          C  0.3803016  0.8165629  0.5000000    0.00000       Uiso       1.00
       C26          C  0.3584354  0.7759352  0.5000000    0.00000       Uiso       1.00
       H19          H  0.3645913  0.8342012  0.5000000    0.00000       Uiso       1.00
       H20          H  0.3251007  0.7605416  0.5000000    0.00000       Uiso       1.00
       C31          C  0.1859651  0.6296833  0.5000000    0.00000       Uiso       1.00
       C32          C  0.2266210  0.6491786  0.5000000    0.00000       Uiso       1.00
       H25          H  0.1702844  0.6473498  0.5000000    0.00000       Uiso       1.00
       H26          H  0.2439830  0.6825364  0.5000000    0.00000       Uiso       1.00
       C37          C  0.2921585  0.6472870  0.5000000    0.00000       Uiso       1.00
       C38          C  0.1631149  0.5865514  0.5000000    0.00000       Uiso       1.00
       C39          C  0.2480498  0.6265268  0.5000000    0.00000       Uiso       1.00
       C46          C  0.3117770  0.6259452  0.5000000    0.00000       Uiso       1.00
       H31          H  0.2981896  0.7056009  0.5000000    0.00000       Uiso       1.00
        C3          C -0.0114645  0.5320293  0.5000000    0.00000       Uiso       1.00
        C4          C  0.0320061  0.5434886  0.5000000    0.00000       Uiso       1.00
        H2          H -0.0199924  0.5557024  0.5000000    0.00000       Uiso       1.00
        H3          O  0.0557325  0.5757143  0.5000000    0.00000       Uiso       1.00
         H          H  0.4975308  0.9137717  0.5000000    0.00000       Uiso       1.00
       C25          C  0.1834371  0.5637386  0.5000000    0.00000       Uiso       1.00
       C26          C  0.2240648  0.5825002  0.5000000    0.00000       Uiso       1.00
       H19          H  0.1657988  0.5303901  0.5000000    0.00000       Uiso       1.00
       H20          H  0.2394584  0.5645590  0.5000000    0.00000       Uiso       1.00
       C31          C  0.3703167  0.5562819  0.5000000    0.00000       Uiso       1.00
       C32          C  0.3508213  0.5774423  0.5000000    0.00000       Uiso       1.00
       H25          H  0.3526501  0.5229344  0.5000000    0.00000       Uiso       1.00
       H26          H  0.3174635  0.5614465  0.5000000    0.00000       Uiso       1.00
       C37          C  0.3527130  0.6448715  0.5000000    0.00000       Uiso       1.00
       C38          C  0.4134486  0.5765635  0.5000000    0.00000       Uiso       1.00
       C39          C  0.3734732  0.6215230  0.5000000    0.00000       Uiso       1.00
       C46          C  0.3740548  0.6858318  0.5000000    0.00000       Uiso       1.00
       H31          H  0.2943990  0.5925886  0.5000000    0.00000       Uiso       1.00
        C3          C  0.4679706  0.4565062  0.5000000    0.00000       Uiso       1.00
        C4          C  0.4565113  0.4885175  0.5000000    0.00000       Uiso       1.00
        H2          H  0.4442976  0.4243052  0.5000000    0.00000       Uiso       1.00
        H3          O  0.4242857  0.4800182  0.5000000    0.00000       Uiso       1.00
         H          H  0.0862282  0.5837590  0.5000000    0.00000       Uiso       1.00
       C25          C  0.4362613  0.6196983  0.5000000    0.00000       Uiso       1.00
       C26          C  0.4174998  0.6415646  0.5000000    0.00000       Uiso       1.00
       H19          H  0.4696098  0.6354086  0.5000000    0.00000       Uiso       1.00
       H20          H  0.4354409  0.6748993  0.5000000    0.00000       Uiso       1.00
       C31          C  0.4437181  0.8140348  0.5000000    0.00000       Uiso       1.00
       C32          C  0.4225576  0.7733790  0.5000000    0.00000       Uiso       1.00
       H25          H  0.4770655  0.8297155  0.5000000    0.00000       Uiso       1.00
       H26          H  0.4385535  0.7560170  0.5000000    0.00000       Uiso       1.00
       C37          C  0.3551284  0.7078415  0.5000000    0.00000       Uiso       1.00
       C38          C  0.4234364  0.8368850  0.5000000    0.00000       Uiso       1.00
       C39          C  0.3784770  0.7519502  0.5000000    0.00000       Uiso       1.00
       C46          C  0.3141681  0.6882229  0.5000000    0.00000       Uiso       1.00
       H31          H  0.4074113  0.7018104  0.5000000    0.00000       Uiso       1.00
         H          H  0.4987174  0.4043854  0.5000000    0.00000       Uiso       1.00
        C3          C  0.4565062 -0.0114645  0.5000000    0.00000       Uiso       1.00
        C4          C  0.4885175  0.0320061  0.5000000    0.00000       Uiso       1.00
        H2          H  0.4243052 -0.0199924  0.5000000    0.00000       Uiso       1.00
        H3          O  0.4800182  0.0557325  0.5000000    0.00000       Uiso       1.00
         H          H  0.5837590  0.4975308  0.5000000    0.00000       Uiso       1.00
       C25          C  0.6196983  0.1834371  0.5000000    0.00000       Uiso       1.00
       C26          C  0.6415646  0.2240648  0.5000000    0.00000       Uiso       1.00
       H19          H  0.6354086  0.1657988  0.5000000    0.00000       Uiso       1.00
       H20          H  0.6748993  0.2394584  0.5000000    0.00000       Uiso       1.00
       C31          C  0.8140348  0.3703167  0.5000000    0.00000       Uiso       1.00
       C32          C  0.7733790  0.3508213  0.5000000    0.00000       Uiso       1.00
       H25          H  0.8297156  0.3526501  0.5000000    0.00000       Uiso       1.00
       H26          H  0.7560170  0.3174635  0.5000000    0.00000       Uiso       1.00
       C37          C  0.7078415  0.3527130  0.5000000    0.00000       Uiso       1.00
       C38          C  0.8368850  0.4134486  0.5000000    0.00000       Uiso       1.00
       C39          C  0.7519502  0.3734732  0.5000000    0.00000       Uiso       1.00
       C46          C  0.6882229  0.3740548  0.5000000    0.00000       Uiso       1.00
       H31          H  0.7018103  0.2943990  0.5000000    0.00000       Uiso       1.00
        C3          C  1.0114645  0.4679706  0.5000000    0.00000       Uiso       1.00
        C4          C  0.9679938  0.4565114  0.5000000    0.00000       Uiso       1.00
        H2          H  1.0199924  0.4442976  0.5000000    0.00000       Uiso       1.00
        H3          O  0.9442675  0.4242857  0.5000000    0.00000       Uiso       1.00
         H          H  0.5024692  0.0862282  0.5000000    0.00000       Uiso       1.00
       C25          C  0.8165629  0.4362613  0.5000000    0.00000       Uiso       1.00
       C26          C  0.7759352  0.4174998  0.5000000    0.00000       Uiso       1.00
       H19          H  0.8342011  0.4696098  0.5000000    0.00000       Uiso       1.00
       H20          H  0.7605416  0.4354409  0.5000000    0.00000       Uiso       1.00
       C31          C  0.6296833  0.4437181  0.5000000    0.00000       Uiso       1.00
       C32          C  0.6491786  0.4225577  0.5000000    0.00000       Uiso       1.00
       H25          H  0.6473498  0.4770655  0.5000000    0.00000       Uiso       1.00
       H26          H  0.6825364  0.4385535  0.5000000    0.00000       Uiso       1.00
       C37          C  0.6472869  0.3551284  0.5000000    0.00000       Uiso       1.00
       C38          C  0.5865514  0.4234364  0.5000000    0.00000       Uiso       1.00
       C39          C  0.6265267  0.3784770  0.5000000    0.00000       Uiso       1.00
       C46          C  0.6259452  0.3141681  0.5000000    0.00000       Uiso       1.00
       H31          H  0.7056009  0.4074113  0.5000000    0.00000       Uiso       1.00
        C3          C  0.5320293  0.5434937  0.5000000    0.00000       Uiso       1.00
        C4          C  0.5434886  0.5114824  0.5000000    0.00000       Uiso       1.00
        H2          H  0.5557024  0.5756948  0.5000000    0.00000       Uiso       1.00
        H3          O  0.5757143  0.5199817  0.5000000    0.00000       Uiso       1.00
         H          H  0.9137717  0.4162409  0.5000000    0.00000       Uiso       1.00
       C25          C  0.5637386  0.3803016  0.5000000    0.00000       Uiso       1.00
       C26          C  0.5825001  0.3584354  0.5000000    0.00000       Uiso       1.00
       H19          H  0.5303901  0.3645913  0.5000000    0.00000       Uiso       1.00
       H20          H  0.5645590  0.3251007  0.5000000    0.00000       Uiso       1.00
       C31          C  0.5562819  0.1859651  0.5000000    0.00000       Uiso       1.00
       C32          C  0.5774423  0.2266210  0.5000000    0.00000       Uiso       1.00
       H25          H  0.5229344  0.1702844  0.5000000    0.00000       Uiso       1.00
       H26          H  0.5614465  0.2439830  0.5000000    0.00000       Uiso       1.00
       C37          C  0.6448715  0.2921585  0.5000000    0.00000       Uiso       1.00
       C38          C  0.5765635  0.1631149  0.5000000    0.00000       Uiso       1.00
       C39          C  0.6215230  0.2480498  0.5000000    0.00000       Uiso       1.00
       C46          C  0.6858318  0.3117770  0.5000000    0.00000       Uiso       1.00
       H31          H  0.5925887  0.2981896  0.5000000    0.00000       Uiso       1.00
         H          H  0.5012825  0.5956146  0.5000000    0.00000       Uiso       1.00
         H          H  0.5956146  0.0943321  0.5000000    0.00000       Uiso       1.00
         H          H  0.9056679  0.5012825  0.5000000    0.00000       Uiso       1.00
         H          H  0.4043854  0.9056679  0.5000000    0.00000       Uiso       1.00
         H          H  0.0943321  0.4987174  0.5000000    0.00000       Uiso       1.00
