data_DhaTta-23
_audit_creation_date              0000-00-00
_audit_creation_method            'LanYouShi'
_symmetry_space_group_name_H-M    'P1'
_cell_length_a                    65.5308990
_cell_length_b                    37.8343010
_cell_length_c                    3.4000001
_cell_angle_alpha                 90.0000000
_cell_angle_beta                  90.0000000
_cell_angle_gamma                 90.0000000
loop_
_atom_site_label
_atom_site_type_symbol
_atom_site_fract_x
_atom_site_fract_y
_atom_site_fract_z
_atom_site_U_iso_or_equiv
_atom_site_adp_type
_atom_site_occupancy
        C1          C  0.7329885  0.1383113  0.4975934    0.00000       Uiso       1.00
        C1          C  0.5585281  0.0126824  0.4511317    0.00000       Uiso       1.00
        C1          C  0.7092592  0.8123260  0.4982870    0.00000       Uiso       1.00
        C1          C  0.2329883  0.6383113  0.4975934    0.00000       Uiso       1.00
        C1          C  0.0585278  0.5126824  0.4511317    0.00000       Uiso       1.00
        C1          C  0.2092589  0.3123260  0.4982870    0.00000       Uiso       1.00
        C1          C  0.2670119  0.1383113  0.5024066    0.00000       Uiso       1.00
        C1          C  0.4414724  0.0126824  0.5488683    0.00000       Uiso       1.00
        C1          C  0.2907413  0.8123260  0.5017130    0.00000       Uiso       1.00
        C1          C  0.7670122  0.6383113  0.5024066    0.00000       Uiso       1.00
        C1          C  0.9414726  0.5126824  0.5488683    0.00000       Uiso       1.00
        C1          C  0.7907416  0.3123260  0.5017130    0.00000       Uiso       1.00
        N1          N  0.7278000  0.1732357  0.4751558    0.00000       Uiso       1.00
        N1          N  0.5431433  0.9885540  0.4942398    0.00000       Uiso       1.00
        N1          N  0.7292883  0.8024936  0.5214854    0.00000       Uiso       1.00
        N1          N  0.2277997  0.6732357  0.4751558    0.00000       Uiso       1.00
        N1          N  0.0431431  0.4885539  0.4942398    0.00000       Uiso       1.00
        N1          N  0.2292881  0.3024937  0.5214854    0.00000       Uiso       1.00
        N1          N  0.2722005  0.1732357  0.5248441    0.00000       Uiso       1.00
        N1          N  0.4568571  0.9885540  0.5057601    0.00000       Uiso       1.00
        N1          N  0.2707121  0.8024936  0.4785146    0.00000       Uiso       1.00
        N1          N  0.7722007  0.6732357  0.5248441    0.00000       Uiso       1.00
        N1          N  0.9568574  0.4885539  0.5057601    0.00000       Uiso       1.00
        N1          N  0.7707124  0.3024937  0.4785146    0.00000       Uiso       1.00
        C1          C  0.7399776  0.2028518  0.4561793    0.00000       Uiso       1.00
        C2          C  0.5222211  0.9926758  0.4976052    0.00000       Uiso       1.00
        C3          C  0.7379462  0.7693713  0.5420679    0.00000       Uiso       1.00
        C4          C  0.2399774  0.7028518  0.4561793    0.00000       Uiso       1.00
        C5          C  0.0222209  0.4926757  0.4976052    0.00000       Uiso       1.00
        C6          C  0.2379460  0.2693714  0.5420679    0.00000       Uiso       1.00
        C7          C  0.2600228  0.2028518  0.5438206    0.00000       Uiso       1.00
        C8          C  0.4777793  0.9926758  0.5023948    0.00000       Uiso       1.00
        C9          C  0.2620543  0.7693713  0.4579321    0.00000       Uiso       1.00
       C10          C  0.7600231  0.7028518  0.5438206    0.00000       Uiso       1.00
       C11          C  0.9777796  0.4926757  0.5023948    0.00000       Uiso       1.00
       C12          C  0.7620545  0.2693714  0.4579321    0.00000       Uiso       1.00
       C13          C  0.7303067  0.2351789  0.5485527    0.00000       Uiso       1.00
       C14          C  0.5107890  0.9610063  0.4984672    0.00000       Uiso       1.00
       C15          C  0.7589500  0.7675632  0.4506610    0.00000       Uiso       1.00
       C16          C  0.2303065  0.7351789  0.5485527    0.00000       Uiso       1.00
       C17          C  0.0107888  0.4610063  0.4984672    0.00000       Uiso       1.00
       C18          C  0.2589498  0.2675632  0.4506610    0.00000       Uiso       1.00
       C19          C  0.2696938  0.2351789  0.4514473    0.00000       Uiso       1.00
       C20          C  0.4892114  0.9610063  0.5015328    0.00000       Uiso       1.00
       C21          C  0.2410505  0.7675632  0.5493389    0.00000       Uiso       1.00
       C22          C  0.7696940  0.7351789  0.4514473    0.00000       Uiso       1.00
       C23          C  0.9892117  0.4610063  0.5015328    0.00000       Uiso       1.00
       C24          C  0.7410507  0.2675632  0.5493389    0.00000       Uiso       1.00
        H1          H  0.7481970  0.1324804  0.5210938    0.00000       Uiso       1.00
        H2          H  0.5544264  0.0383631  0.4035247    0.00000       Uiso       1.00
        H3          H  0.6986898  0.7925057  0.4754932    0.00000       Uiso       1.00
        H4          H  0.2481967  0.6324803  0.5210938    0.00000       Uiso       1.00
        H5          H  0.0544261  0.5383630  0.4035247    0.00000       Uiso       1.00
        H6          H  0.1986896  0.2925057  0.4754932    0.00000       Uiso       1.00
        H7          H  0.2518035  0.1324804  0.4789062    0.00000       Uiso       1.00
        H8          H  0.4455741  0.0383631  0.5964752    0.00000       Uiso       1.00
        H9          H  0.3013106  0.7925057  0.5245067    0.00000       Uiso       1.00
       H10          H  0.7518038  0.6324803  0.4789062    0.00000       Uiso       1.00
       H11          H  0.9455743  0.5383630  0.5964752    0.00000       Uiso       1.00
       H12          H  0.8013109  0.2925057  0.5245067    0.00000       Uiso       1.00
       H13          H  0.7151224  0.2351544  0.6203324    0.00000       Uiso       1.00
       H14          H  0.5183291  0.9372884  0.4968148    0.00000       Uiso       1.00
       H15          H  0.7665935  0.7902765  0.3784131    0.00000       Uiso       1.00
       H16          H  0.2151221  0.7351544  0.6203324    0.00000       Uiso       1.00
       H17          H  0.0183289  0.4372884  0.4968148    0.00000       Uiso       1.00
       H18          H  0.2665932  0.2902764  0.3784131    0.00000       Uiso       1.00
       H19          H  0.2848781  0.2351544  0.3796676    0.00000       Uiso       1.00
       H20          H  0.4816713  0.9372884  0.5031852    0.00000       Uiso       1.00
       H21          H  0.2334070  0.7902765  0.6215869    0.00000       Uiso       1.00
       H22          H  0.7848783  0.7351544  0.3796676    0.00000       Uiso       1.00
       H23          H  0.9816716  0.4372884  0.5031852    0.00000       Uiso       1.00
       H24          H  0.7334073  0.2902764  0.6215869    0.00000       Uiso       1.00
       C25          C  0.7718982  0.2371823  0.3466889    0.00000       Uiso       1.00
       C26          C  0.9890621  0.5250170  0.4969278    0.00000       Uiso       1.00
       C27          C  0.7390016  0.7043288  0.6545238    0.00000       Uiso       1.00
       C28          C  0.2718979  0.7371823  0.3466889    0.00000       Uiso       1.00
       C29          C  0.4890618  0.0250170  0.4969278    0.00000       Uiso       1.00
       C30          C  0.2390013  0.2043288  0.6545238    0.00000       Uiso       1.00
       C31          C  0.2281023  0.2371823  0.6533111    0.00000       Uiso       1.00
       C32          C  0.0109384  0.5250170  0.5030722    0.00000       Uiso       1.00
       C33          C  0.2609989  0.7043288  0.3454762    0.00000       Uiso       1.00
       C34          C  0.7281026  0.7371823  0.6533111    0.00000       Uiso       1.00
       C35          C  0.5109386  0.0250170  0.5030722    0.00000       Uiso       1.00
       C36          C  0.7609991  0.2043288  0.3454762    0.00000       Uiso       1.00
        O1          O  0.7917563  0.2382115  0.2224036    0.00000       Uiso       1.00
        O2          O  0.9788455  0.5564839  0.4807729    0.00000       Uiso       1.00
        O3          O  0.7295266  0.6741350  0.7806753    0.00000       Uiso       1.00
        O4          O  0.2917560  0.7382115  0.2224036    0.00000       Uiso       1.00
        O5          O  0.4788452  0.0564839  0.4807729    0.00000       Uiso       1.00
        O6          O  0.2295264  0.1741350  0.7806753    0.00000       Uiso       1.00
        O7          O  0.2082442  0.2382115  0.7775964    0.00000       Uiso       1.00
        O8          O  0.0211550  0.5564839  0.5192270    0.00000       Uiso       1.00
        O9          O  0.2704738  0.6741350  0.2193246    0.00000       Uiso       1.00
       O10          O  0.7082444  0.7382115  0.7775964    0.00000       Uiso       1.00
       O11          O  0.5211553  0.0564839  0.5192270    0.00000       Uiso       1.00
       O12          O  0.7704740  0.1741350  0.2193246    0.00000       Uiso       1.00
       C37          C  0.7858778  0.3781134  0.4900633    0.00000       Uiso       1.00
       C38          C  0.9113126  0.4717747  0.5085571    0.00000       Uiso       1.00
       C39          C  0.8022747  0.6125160  0.5175759    0.00000       Uiso       1.00
       C40          C  0.2858776  0.8781133  0.4900633    0.00000       Uiso       1.00
       C41          C  0.4113123  0.9717746  0.5085571    0.00000       Uiso       1.00
       C42          C  0.3022745  0.1125160  0.5175759    0.00000       Uiso       1.00
       C43          C  0.2141227  0.3781134  0.5099366    0.00000       Uiso       1.00
       C44          C  0.0886879  0.4717747  0.4914429    0.00000       Uiso       1.00
       C45          C  0.1977257  0.6125160  0.4824241    0.00000       Uiso       1.00
       C46          C  0.7141230  0.8781133  0.5099366    0.00000       Uiso       1.00
       C47          C  0.5886881  0.9717746  0.4914429    0.00000       Uiso       1.00
       C48          C  0.6977260  0.1125160  0.4824241    0.00000       Uiso       1.00
       C49          C  0.7943367  0.4126623  0.4913349    0.00000       Uiso       1.00
       C50          C  0.8898253  0.4668066  0.5017375    0.00000       Uiso       1.00
       C51          C  0.8152673  0.5824900  0.5186306    0.00000       Uiso       1.00
       C52          C  0.2943365  0.9126623  0.4913349    0.00000       Uiso       1.00
       C53          C  0.3898251  0.9668067  0.5017375    0.00000       Uiso       1.00
       C54          C  0.3152670  0.0824900  0.5186306    0.00000       Uiso       1.00
       C55          C  0.2056637  0.4126623  0.5086651    0.00000       Uiso       1.00
       C56          C  0.1101751  0.4668066  0.4982625    0.00000       Uiso       1.00
       C57          C  0.1847332  0.5824900  0.4813694    0.00000       Uiso       1.00
       C58          C  0.7056640  0.9126623  0.5086651    0.00000       Uiso       1.00
       C59          C  0.6101754  0.9668067  0.4982625    0.00000       Uiso       1.00
       C60          C  0.6847335  0.0824900  0.4813694    0.00000       Uiso       1.00
       H25          H  0.7703578  0.3753077  0.4796746    0.00000       Uiso       1.00
       H26          H  0.9206364  0.4501313  0.4930094    0.00000       Uiso       1.00
       H27          H  0.8086687  0.6371700  0.5276669    0.00000       Uiso       1.00
       H28          H  0.2703575  0.8753077  0.4796746    0.00000       Uiso       1.00
       H29          H  0.4206361  0.9501312  0.4930094    0.00000       Uiso       1.00
       H30          H  0.3086686  0.1371700  0.5276669    0.00000       Uiso       1.00
       H31          H  0.2296427  0.3753077  0.5203253    0.00000       Uiso       1.00
       H32          H  0.0793641  0.4501313  0.5069906    0.00000       Uiso       1.00
       H33          H  0.1913317  0.6371700  0.4723331    0.00000       Uiso       1.00
       H34          H  0.7296429  0.8753077  0.5203253    0.00000       Uiso       1.00
       H35          H  0.5793644  0.9501312  0.5069906    0.00000       Uiso       1.00
       H36          H  0.6913319  0.1371700  0.4723331    0.00000       Uiso       1.00
       H37          H  0.7845362  0.4336914  0.4818756    0.00000       Uiso       1.00
       H38          H  0.8843549  0.4415511  0.4813093    0.00000       Uiso       1.00
       H39          H  0.8306845  0.5866104  0.5294147    0.00000       Uiso       1.00
       H40          H  0.2845360  0.9336914  0.4818756    0.00000       Uiso       1.00
       H41          H  0.3843547  0.9415510  0.4813093    0.00000       Uiso       1.00
       H42          H  0.3306842  0.0866105  0.5294147    0.00000       Uiso       1.00
       H43          H  0.2154642  0.4336914  0.5181243    0.00000       Uiso       1.00
       H44          H  0.1156455  0.4415511  0.5186907    0.00000       Uiso       1.00
       H45          H  0.1693160  0.5866104  0.4705853    0.00000       Uiso       1.00
       H46          H  0.7154645  0.9336914  0.5181243    0.00000       Uiso       1.00
       H47          H  0.6156458  0.9415510  0.5186907    0.00000       Uiso       1.00
       H48          H  0.6693162  0.0866105  0.4705853    0.00000       Uiso       1.00
       C61          C  0.7730359  0.5741243  0.4897273    0.00000       Uiso       1.00
       C62          C  0.8197349  0.3536084  0.5164557    0.00000       Uiso       1.00
       C63          C  0.9061982  0.5346063  0.5565450    0.00000       Uiso       1.00
       C64          C  0.2730357  0.0741244  0.4897273    0.00000       Uiso       1.00
       C65          C  0.3197346  0.8536084  0.5164557    0.00000       Uiso       1.00
       C66          C  0.4061980  0.0346063  0.5565450    0.00000       Uiso       1.00
       C67          C  0.2269646  0.5741243  0.5102726    0.00000       Uiso       1.00
       C68          C  0.1802656  0.3536084  0.4835442    0.00000       Uiso       1.00
       C69          C  0.0938023  0.5346063  0.4434550    0.00000       Uiso       1.00
       C70          C  0.7269648  0.0741244  0.5102726    0.00000       Uiso       1.00
       C71          C  0.6802658  0.8536084  0.4835442    0.00000       Uiso       1.00
       C72          C  0.5938026  0.0346063  0.4434550    0.00000       Uiso       1.00
       C73          C  0.7859969  0.5442572  0.4913672    0.00000       Uiso       1.00
       C74          C  0.8281264  0.3880248  0.5171250    0.00000       Uiso       1.00
       C75          C  0.8848421  0.5296215  0.5484579    0.00000       Uiso       1.00
       C76          C  0.2859966  0.0442572  0.4913672    0.00000       Uiso       1.00
       C77          C  0.3281262  0.8880248  0.5171250    0.00000       Uiso       1.00
       C78          C  0.3848419  0.0296215  0.5484579    0.00000       Uiso       1.00
       C79          C  0.2140036  0.5442572  0.5086328    0.00000       Uiso       1.00
       C80          C  0.1718740  0.3880248  0.4828750    0.00000       Uiso       1.00
       C81          C  0.1151584  0.5296215  0.4515420    0.00000       Uiso       1.00
       C82          C  0.7140039  0.0442572  0.5086328    0.00000       Uiso       1.00
       C83          C  0.6718743  0.8880248  0.4828750    0.00000       Uiso       1.00
       C84          C  0.6151586  0.0296215  0.4515420    0.00000       Uiso       1.00
       H49          H  0.7576141  0.5698563  0.4788333    0.00000       Uiso       1.00
       H50          H  0.8296219  0.3326637  0.5259427    0.00000       Uiso       1.00
       H51          H  0.9115339  0.5599862  0.5770194    0.00000       Uiso       1.00
       H52          H  0.2576139  0.0698563  0.4788333    0.00000       Uiso       1.00
       H53          H  0.3296217  0.8326637  0.5259427    0.00000       Uiso       1.00
       H54          H  0.4115336  0.0599862  0.5770194    0.00000       Uiso       1.00
       H55          H  0.2423864  0.5698563  0.5211667    0.00000       Uiso       1.00
       H56          H  0.1703785  0.3326637  0.4740573    0.00000       Uiso       1.00
       H57          H  0.0884666  0.5599862  0.4229806    0.00000       Uiso       1.00
       H58          H  0.7423866  0.0698563  0.5211667    0.00000       Uiso       1.00
       H59          H  0.6703787  0.8326637  0.4740573    0.00000       Uiso       1.00
       H60          H  0.5884669  0.0599862  0.4229806    0.00000       Uiso       1.00
       H61          H  0.7793589  0.5197926  0.4813823    0.00000       Uiso       1.00
       H62          H  0.8436745  0.3903685  0.5273087    0.00000       Uiso       1.00
       H63          H  0.8757724  0.5515987  0.5637349    0.00000       Uiso       1.00
       H64          H  0.2793587  0.0197926  0.4813823    0.00000       Uiso       1.00
       H65          H  0.3436742  0.8903685  0.5273087    0.00000       Uiso       1.00
       H66          H  0.3757721  0.0515987  0.5637349    0.00000       Uiso       1.00
       H67          H  0.2206416  0.5197926  0.5186176    0.00000       Uiso       1.00
       H68          H  0.1563260  0.3903685  0.4726913    0.00000       Uiso       1.00
       H69          H  0.1242281  0.5515987  0.4362650    0.00000       Uiso       1.00
       H70          H  0.7206418  0.0197926  0.5186176    0.00000       Uiso       1.00
       H71          H  0.6563262  0.8903685  0.4726913    0.00000       Uiso       1.00
       H72          H  0.6242283  0.0515987  0.4362650    0.00000       Uiso       1.00
       C85          C  0.8204873  0.5167997  0.5078886    0.00000       Uiso       1.00
       C86          C  0.8245163  0.4534767  0.5066433    0.00000       Uiso       1.00
       C87          C  0.8541616  0.4911550  0.5152594    0.00000       Uiso       1.00
       C88          C  0.3204870  0.0167997  0.5078886    0.00000       Uiso       1.00
       C89          C  0.3245161  0.9534767  0.5066433    0.00000       Uiso       1.00
       C90          C  0.3541614  0.9911550  0.5152594    0.00000       Uiso       1.00
       C91          C  0.1795132  0.5167997  0.4921114    0.00000       Uiso       1.00
       C92          C  0.1754842  0.4534767  0.4933566    0.00000       Uiso       1.00
       C93          C  0.1458389  0.4911550  0.4847406    0.00000       Uiso       1.00
       C94          C  0.6795134  0.0167997  0.4921114    0.00000       Uiso       1.00
       C95          C  0.6754844  0.9534767  0.4933566    0.00000       Uiso       1.00
       C96          C  0.6458391  0.9911550  0.4847406    0.00000       Uiso       1.00
       C97          C  0.7807637  0.6091381  0.5030664    0.00000       Uiso       1.00
       C98          C  0.7983747  0.3475909  0.5028459    0.00000       Uiso       1.00
       C99          C  0.9200916  0.5058861  0.5373310    0.00000       Uiso       1.00
      C100          C  0.2807635  0.1091382  0.5030664    0.00000       Uiso       1.00
      C101          C  0.2983744  0.8475909  0.5028459    0.00000       Uiso       1.00
      C102          C  0.4200914  0.0058861  0.5373310    0.00000       Uiso       1.00
      C103          C  0.2192367  0.6091381  0.4969336    0.00000       Uiso       1.00
      C104          C  0.2016258  0.3475909  0.4971541    0.00000       Uiso       1.00
      C105          C  0.0799088  0.5058861  0.4626690    0.00000       Uiso       1.00
      C106          C  0.7192370  0.1091382  0.4969336    0.00000       Uiso       1.00
      C107          C  0.7016260  0.8475909  0.4971541    0.00000       Uiso       1.00
      C108          C  0.5799090  0.0058861  0.4626690    0.00000       Uiso       1.00
      C109          C  0.8075682  0.5473316  0.5059850    0.00000       Uiso       1.00
      C110          C  0.8157541  0.4187958  0.5048031    0.00000       Uiso       1.00
      C111          C  0.8758643  0.4955775  0.5214625    0.00000       Uiso       1.00
      C112          C  0.3075680  0.0473316  0.5059850    0.00000       Uiso       1.00
      C113          C  0.3157538  0.9187958  0.5048031    0.00000       Uiso       1.00
      C114          C  0.3758640  0.9955776  0.5214625    0.00000       Uiso       1.00
      C115          C  0.1924323  0.5473316  0.4940150    0.00000       Uiso       1.00
      C116          C  0.1842464  0.4187958  0.4951969    0.00000       Uiso       1.00
      C117          C  0.1241362  0.4955775  0.4785375    0.00000       Uiso       1.00
      C118          C  0.6924325  0.0473316  0.4940150    0.00000       Uiso       1.00
      C119          C  0.6842467  0.9187958  0.4951969    0.00000       Uiso       1.00
      C120          C  0.6241364  0.9955776  0.4785375    0.00000       Uiso       1.00
        N1          N  0.8412260  0.5194303  0.5134816    0.00000       Uiso       1.00
        N2          N  0.8127994  0.4832651  0.5046036    0.00000       Uiso       1.00
        N3          N  0.8451390  0.4586844  0.5115251    0.00000       Uiso       1.00
        N4          N  0.3412257  0.0194302  0.5134816    0.00000       Uiso       1.00
        N5          N  0.3127991  0.9832650  0.5046036    0.00000       Uiso       1.00
        N6          N  0.3451388  0.9586844  0.5115251    0.00000       Uiso       1.00
        N7          N  0.1587745  0.5194303  0.4865184    0.00000       Uiso       1.00
        N8          N  0.1872011  0.4832651  0.4953964    0.00000       Uiso       1.00
        N9          N  0.1548615  0.4586844  0.4884748    0.00000       Uiso       1.00
       N10          N  0.6587747  0.0194302  0.4865184    0.00000       Uiso       1.00
       N11          N  0.6872013  0.9832650  0.4953964    0.00000       Uiso       1.00
       N12          N  0.6548617  0.9586844  0.4884748    0.00000       Uiso       1.00
       H73          H  0.7985958  0.2165472  0.1338836    0.00000       Uiso       1.00
       H74          H  0.9863347  0.5788646  0.4662775    0.00000       Uiso       1.00
       H75          H  0.7153022  0.6745882  0.8704770    0.00000       Uiso       1.00
       H76          H  0.2985955  0.7165472  0.1338836    0.00000       Uiso       1.00
       H77          H  0.4863344  0.0788646  0.4662775    0.00000       Uiso       1.00
       H78          H  0.2153020  0.1745882  0.8704770    0.00000       Uiso       1.00
       H79          H  0.2014047  0.2165472  0.8661164    0.00000       Uiso       1.00
       H80          H  0.0136658  0.5788646  0.5337225    0.00000       Uiso       1.00
       H81          H  0.2846982  0.6745882  0.1295229    0.00000       Uiso       1.00
       H82          H  0.7014050  0.7165472  0.8661164    0.00000       Uiso       1.00
       H83          H  0.5136660  0.0788646  0.5337225    0.00000       Uiso       1.00
       H84          H  0.7846985  0.1745882  0.1295229    0.00000       Uiso       1.00
