data_DL-COF-1-ctn
_audit_creation_date              0000-00-00
_audit_creation_method            'LanYouShi'
_symmetry_space_group_name_H-M    'P1'
_cell_length_a                    41.0115013
_cell_length_b                    41.0115013
_cell_length_c                    41.0115013
_cell_angle_alpha                 90.0000000
_cell_angle_beta                  90.0000000
_cell_angle_gamma                 90.0000000
loop_
_atom_site_label
_atom_site_type_symbol
_atom_site_fract_x
_atom_site_fract_y
_atom_site_fract_z
_atom_site_U_iso_or_equiv
_atom_site_adp_type
_atom_site_occupancy
        N1          N  0.2621100  0.3329500  0.9406300    0.00000       Uiso       1.00
        C1          C  0.2423000  0.3112800  0.9287000    0.00000       Uiso       1.00
        C2          C  0.2557200  0.3530100  0.9695600    0.00000       Uiso       1.00
        B1          B  0.2766300  0.2341400  0.8133399    0.00000       Uiso       1.00
        O1          O  0.2941300  0.8052000  0.7435600    0.00000       Uiso       1.00
        C3          C  0.6251700  0.4755900  0.2140600    0.00000       Uiso       1.00
        H1          H  0.6406500  0.4794600  0.1921000    0.00000       Uiso       1.00
        H2          H  0.6100500  0.4535600  0.2093900    0.00000       Uiso       1.00
        H3          H  0.9347699  0.5215300  0.7463500    0.00000       Uiso       1.00
        C4          C  0.2512200  0.7077699  0.6005000    0.00000       Uiso       1.00
        C5          C  0.2674700  0.7449900  0.6559500    0.00000       Uiso       1.00
        C6          C  0.2308600  0.7332399  0.6108400    0.00000       Uiso       1.00
        C7          C  0.2389600  0.7517900  0.6382700    0.00000       Uiso       1.00
        C8          C  0.2797800  0.7009700  0.6182200    0.00000       Uiso       1.00
        C9          C  0.2877700  0.7193700  0.6457700    0.00000       Uiso       1.00
        H4          H  0.2190300  0.3066800  0.9403299    0.00000       Uiso       1.00
        H5          H  0.2087400  0.7389000  0.5975700    0.00000       Uiso       1.00
        H6          H  0.2228300  0.7713900  0.6455899    0.00000       Uiso       1.00
        H7          H  0.2959100  0.6814100  0.6108600    0.00000       Uiso       1.00
        H8          H  0.3099200  0.7135900  0.6589500    0.00000       Uiso       1.00
        N2          N  0.7621099  0.8329500  0.4406300    0.00000       Uiso       1.00
       C10          C  0.7423000  0.8112800  0.4287000    0.00000       Uiso       1.00
       C11          C  0.7557200  0.8530099  0.4695600    0.00000       Uiso       1.00
        B2          B  0.7766300  0.7341400  0.3133400    0.00000       Uiso       1.00
        O2          O  0.7941300  0.3052000  0.2435600    0.00000       Uiso       1.00
       C12          C  0.1251700  0.9755900  0.7140600    0.00000       Uiso       1.00
        H9          H  0.1406500  0.9794600  0.6921000    0.00000       Uiso       1.00
       H10          H  0.1100500  0.9535600  0.7093900    0.00000       Uiso       1.00
       H11          H  0.4347700  0.0215300  0.2463500    0.00000       Uiso       1.00
       C13          C  0.7512200  0.2077700  0.1005000    0.00000       Uiso       1.00
       C14          C  0.7674699  0.2449900  0.1559500    0.00000       Uiso       1.00
       C15          C  0.7308600  0.2332400  0.1108400    0.00000       Uiso       1.00
       C16          C  0.7389600  0.2517900  0.1382700    0.00000       Uiso       1.00
       C17          C  0.7797800  0.2009700  0.1182200    0.00000       Uiso       1.00
       C18          C  0.7877700  0.2193700  0.1457700    0.00000       Uiso       1.00
       H12          H  0.7190300  0.8066800  0.4403300    0.00000       Uiso       1.00
       H13          H  0.7087400  0.2389000  0.0975700    0.00000       Uiso       1.00
       H14          H  0.7228300  0.2713900  0.1455900    0.00000       Uiso       1.00
       H15          H  0.7959100  0.1814100  0.1108600    0.00000       Uiso       1.00
       H16          H  0.8099200  0.2135900  0.1589500    0.00000       Uiso       1.00
        N3          N  0.2378900  0.6670500  0.4406300    0.00000       Uiso       1.00
       C19          C  0.2577000  0.6887200  0.4287000    0.00000       Uiso       1.00
       C20          C  0.2442800  0.6469900  0.4695600    0.00000       Uiso       1.00
        B3          B  0.2233700  0.7658600  0.3133400    0.00000       Uiso       1.00
        O3          O  0.2058700  0.1948000  0.2435600    0.00000       Uiso       1.00
       C21          C  0.8748299  0.5244100  0.7140600    0.00000       Uiso       1.00
       H17          H  0.8593500  0.5205399  0.6921000    0.00000       Uiso       1.00
       H18          H  0.8899500  0.5464400  0.7093900    0.00000       Uiso       1.00
       H19          H  0.5652300  0.4784700  0.2463500    0.00000       Uiso       1.00
       C22          C  0.2487800  0.2922300  0.1005000    0.00000       Uiso       1.00
       C23          C  0.2325300  0.2550100  0.1559500    0.00000       Uiso       1.00
       C24          C  0.2691400  0.2667600  0.1108400    0.00000       Uiso       1.00
       C25          C  0.2610400  0.2482100  0.1382700    0.00000       Uiso       1.00
       C26          C  0.2202200  0.2990300  0.1182200    0.00000       Uiso       1.00
       C27          C  0.2122300  0.2806300  0.1457700    0.00000       Uiso       1.00
       H20          H  0.2809700  0.6933200  0.4403300    0.00000       Uiso       1.00
       H21          H  0.2912600  0.2611000  0.0975700    0.00000       Uiso       1.00
       H22          H  0.2771700  0.2286100  0.1455900    0.00000       Uiso       1.00
       H23          H  0.2040900  0.3185900  0.1108600    0.00000       Uiso       1.00
       H24          H  0.1900800  0.2864100  0.1589500    0.00000       Uiso       1.00
        N4          N  0.7378900  0.1670500  0.9406300    0.00000       Uiso       1.00
       C28          C  0.7577000  0.1887200  0.9287000    0.00000       Uiso       1.00
       C29          C  0.7442800  0.1469900  0.9695600    0.00000       Uiso       1.00
        B4          B  0.7233700  0.2658600  0.8133399    0.00000       Uiso       1.00
        O4          O  0.7058700  0.6948000  0.7435600    0.00000       Uiso       1.00
       C30          C  0.3748300  0.0244100  0.2140600    0.00000       Uiso       1.00
       H25          H  0.3593500  0.0205400  0.1921000    0.00000       Uiso       1.00
       H26          H  0.3899500  0.0464400  0.2093900    0.00000       Uiso       1.00
       H27          H  0.0652300  0.9784699  0.7463500    0.00000       Uiso       1.00
       C31          C  0.7487800  0.7922300  0.6005000    0.00000       Uiso       1.00
       C32          C  0.7325300  0.7550099  0.6559500    0.00000       Uiso       1.00
       C33          C  0.7691399  0.7667600  0.6108400    0.00000       Uiso       1.00
       C34          C  0.7610400  0.7482100  0.6382700    0.00000       Uiso       1.00
       C35          C  0.7202200  0.7990300  0.6182200    0.00000       Uiso       1.00
       C36          C  0.7122300  0.7806300  0.6457700    0.00000       Uiso       1.00
       H28          H  0.7809700  0.1933200  0.9403299    0.00000       Uiso       1.00
       H29          H  0.7912600  0.7610999  0.5975700    0.00000       Uiso       1.00
       H30          H  0.7771700  0.7286100  0.6455899    0.00000       Uiso       1.00
       H31          H  0.7040900  0.8185900  0.6108600    0.00000       Uiso       1.00
       H32          H  0.6900800  0.7864100  0.6589500    0.00000       Uiso       1.00
        N5          N  0.7378900  0.8329500  0.5593700    0.00000       Uiso       1.00
       C37          C  0.7577000  0.8112800  0.5713000    0.00000       Uiso       1.00
       C38          C  0.7442800  0.8530099  0.5304400    0.00000       Uiso       1.00
        B5          B  0.7233700  0.7341400  0.6866600    0.00000       Uiso       1.00
        O5          O  0.7058700  0.3052000  0.7564400    0.00000       Uiso       1.00
       C39          C  0.3748300  0.9755900  0.2859400    0.00000       Uiso       1.00
       H33          H  0.3593500  0.9794600  0.3079000    0.00000       Uiso       1.00
       H34          H  0.3899500  0.9535600  0.2906100    0.00000       Uiso       1.00
       H35          H  0.0652300  0.0215300  0.7536500    0.00000       Uiso       1.00
       C40          C  0.7487800  0.2077700  0.8995000    0.00000       Uiso       1.00
       C41          C  0.7325300  0.2449900  0.8440500    0.00000       Uiso       1.00
       C42          C  0.7691399  0.2332400  0.8891600    0.00000       Uiso       1.00
       C43          C  0.7610400  0.2517900  0.8617300    0.00000       Uiso       1.00
       C44          C  0.7202200  0.2009700  0.8817800    0.00000       Uiso       1.00
       C45          C  0.7122300  0.2193700  0.8542299    0.00000       Uiso       1.00
       H36          H  0.7809700  0.8066800  0.5596700    0.00000       Uiso       1.00
       H37          H  0.7912600  0.2389000  0.9024300    0.00000       Uiso       1.00
       H38          H  0.7771700  0.2713900  0.8544099    0.00000       Uiso       1.00
       H39          H  0.7040900  0.1814100  0.8891400    0.00000       Uiso       1.00
       H40          H  0.6900800  0.2135900  0.8410500    0.00000       Uiso       1.00
        N6          N  0.2378900  0.3329500  0.0593700    0.00000       Uiso       1.00
       C46          C  0.2577000  0.3112800  0.0713000    0.00000       Uiso       1.00
       C47          C  0.2442800  0.3530100  0.0304400    0.00000       Uiso       1.00
        B6          B  0.2233700  0.2341400  0.1866600    0.00000       Uiso       1.00
        O6          O  0.2058700  0.8052000  0.2564400    0.00000       Uiso       1.00
       C48          C  0.8748299  0.4755900  0.7859400    0.00000       Uiso       1.00
       H41          H  0.8593500  0.4794600  0.8079000    0.00000       Uiso       1.00
       H42          H  0.8899500  0.4535600  0.7906100    0.00000       Uiso       1.00
       H43          H  0.5652300  0.5215300  0.2536500    0.00000       Uiso       1.00
       C49          C  0.2487800  0.7077699  0.3995000    0.00000       Uiso       1.00
       C50          C  0.2325300  0.7449900  0.3440500    0.00000       Uiso       1.00
       C51          C  0.2691400  0.7332399  0.3891600    0.00000       Uiso       1.00
       C52          C  0.2610400  0.7517900  0.3617300    0.00000       Uiso       1.00
       C53          C  0.2202200  0.7009700  0.3817800    0.00000       Uiso       1.00
       C54          C  0.2122300  0.7193700  0.3542300    0.00000       Uiso       1.00
       H44          H  0.2809700  0.3066800  0.0596700    0.00000       Uiso       1.00
       H45          H  0.2912600  0.7389000  0.4024300    0.00000       Uiso       1.00
       H46          H  0.2771700  0.7713900  0.3544100    0.00000       Uiso       1.00
       H47          H  0.2040900  0.6814100  0.3891400    0.00000       Uiso       1.00
       H48          H  0.1900800  0.7135900  0.3410500    0.00000       Uiso       1.00
        N7          N  0.7621099  0.1670500  0.0593700    0.00000       Uiso       1.00
       C55          C  0.7423000  0.1887200  0.0713000    0.00000       Uiso       1.00
       C56          C  0.7557200  0.1469900  0.0304400    0.00000       Uiso       1.00
        B7          B  0.7766300  0.2658600  0.1866600    0.00000       Uiso       1.00
        O7          O  0.7941300  0.6948000  0.2564400    0.00000       Uiso       1.00
       C57          C  0.1251700  0.0244100  0.7859400    0.00000       Uiso       1.00
       H49          H  0.1406500  0.0205400  0.8079000    0.00000       Uiso       1.00
       H50          H  0.1100500  0.0464400  0.7906100    0.00000       Uiso       1.00
       H51          H  0.4347700  0.9784699  0.2536500    0.00000       Uiso       1.00
       C58          C  0.7512200  0.7922300  0.3995000    0.00000       Uiso       1.00
       C59          C  0.7674699  0.7550099  0.3440500    0.00000       Uiso       1.00
       C60          C  0.7308600  0.7667600  0.3891600    0.00000       Uiso       1.00
       C61          C  0.7389600  0.7482100  0.3617300    0.00000       Uiso       1.00
       C62          C  0.7797800  0.7990300  0.3817800    0.00000       Uiso       1.00
       C63          C  0.7877700  0.7806300  0.3542300    0.00000       Uiso       1.00
       H52          H  0.7190300  0.1933200  0.0596700    0.00000       Uiso       1.00
       H53          H  0.7087400  0.7610999  0.4024300    0.00000       Uiso       1.00
       H54          H  0.7228300  0.7286100  0.3544100    0.00000       Uiso       1.00
       H55          H  0.7959100  0.8185900  0.3891400    0.00000       Uiso       1.00
       H56          H  0.8099200  0.7864100  0.3410500    0.00000       Uiso       1.00
        N8          N  0.2621100  0.6670500  0.5593700    0.00000       Uiso       1.00
       C64          C  0.2423000  0.6887200  0.5713000    0.00000       Uiso       1.00
       C65          C  0.2557200  0.6469900  0.5304400    0.00000       Uiso       1.00
        B8          B  0.2766300  0.7658600  0.6866600    0.00000       Uiso       1.00
        O8          O  0.2941300  0.1948000  0.7564400    0.00000       Uiso       1.00
       C66          C  0.6251700  0.5244100  0.2859400    0.00000       Uiso       1.00
       H57          H  0.6406500  0.5205399  0.3079000    0.00000       Uiso       1.00
       H58          H  0.6100500  0.5464400  0.2906100    0.00000       Uiso       1.00
       H59          H  0.9347699  0.4784700  0.7536500    0.00000       Uiso       1.00
       C67          C  0.2512200  0.2922300  0.8995000    0.00000       Uiso       1.00
       C68          C  0.2674700  0.2550100  0.8440500    0.00000       Uiso       1.00
       C69          C  0.2308600  0.2667600  0.8891600    0.00000       Uiso       1.00
       C70          C  0.2389600  0.2482100  0.8617300    0.00000       Uiso       1.00
       C71          C  0.2797800  0.2990300  0.8817800    0.00000       Uiso       1.00
       C72          C  0.2877700  0.2806300  0.8542299    0.00000       Uiso       1.00
       H60          H  0.2190300  0.6933200  0.5596700    0.00000       Uiso       1.00
       H61          H  0.2087400  0.2611000  0.9024300    0.00000       Uiso       1.00
       H62          H  0.2228300  0.2286100  0.8544099    0.00000       Uiso       1.00
       H63          H  0.2959100  0.3185900  0.8891400    0.00000       Uiso       1.00
       H64          H  0.3099200  0.2864100  0.8410500    0.00000       Uiso       1.00
        N9          N  0.9406300  0.2621100  0.3329500    0.00000       Uiso       1.00
       C73          C  0.9287000  0.2423000  0.3112800    0.00000       Uiso       1.00
       C74          C  0.9695600  0.2557200  0.3530100    0.00000       Uiso       1.00
        B9          B  0.8133399  0.2766300  0.2341400    0.00000       Uiso       1.00
        O9          O  0.7435600  0.2941300  0.8052000    0.00000       Uiso       1.00
       C75          C  0.2140600  0.6251700  0.4755900    0.00000       Uiso       1.00
       H65          H  0.1921000  0.6406500  0.4794600    0.00000       Uiso       1.00
       H66          H  0.2093900  0.6100500  0.4535600    0.00000       Uiso       1.00
       H67          H  0.7463500  0.9347699  0.5215300    0.00000       Uiso       1.00
       C76          C  0.6005000  0.2512200  0.7077699    0.00000       Uiso       1.00
       C77          C  0.6559500  0.2674700  0.7449900    0.00000       Uiso       1.00
       C78          C  0.6108400  0.2308600  0.7332399    0.00000       Uiso       1.00
       C79          C  0.6382700  0.2389600  0.7517900    0.00000       Uiso       1.00
       C80          C  0.6182200  0.2797800  0.7009700    0.00000       Uiso       1.00
       C81          C  0.6457700  0.2877700  0.7193700    0.00000       Uiso       1.00
       H68          H  0.9403299  0.2190300  0.3066800    0.00000       Uiso       1.00
       H69          H  0.5975700  0.2087400  0.7389000    0.00000       Uiso       1.00
       H70          H  0.6455899  0.2228300  0.7713900    0.00000       Uiso       1.00
       H71          H  0.6108600  0.2959100  0.6814100    0.00000       Uiso       1.00
       H72          H  0.6589500  0.3099200  0.7135900    0.00000       Uiso       1.00
       N10          N  0.4406300  0.7621099  0.8329500    0.00000       Uiso       1.00
       C82          C  0.4287000  0.7423000  0.8112800    0.00000       Uiso       1.00
       C83          C  0.4695600  0.7557200  0.8530099    0.00000       Uiso       1.00
       B10          B  0.3133400  0.7766300  0.7341400    0.00000       Uiso       1.00
       O10          O  0.2435600  0.7941300  0.3052000    0.00000       Uiso       1.00
       C84          C  0.7140600  0.1251700  0.9755900    0.00000       Uiso       1.00
       H73          H  0.6921000  0.1406500  0.9794600    0.00000       Uiso       1.00
       H74          H  0.7093900  0.1100500  0.9535600    0.00000       Uiso       1.00
       H75          H  0.2463500  0.4347700  0.0215300    0.00000       Uiso       1.00
       C85          C  0.1005000  0.7512200  0.2077700    0.00000       Uiso       1.00
       C86          C  0.1559500  0.7674699  0.2449900    0.00000       Uiso       1.00
       C87          C  0.1108400  0.7308600  0.2332400    0.00000       Uiso       1.00
       C88          C  0.1382700  0.7389600  0.2517900    0.00000       Uiso       1.00
       C89          C  0.1182200  0.7797800  0.2009700    0.00000       Uiso       1.00
       C90          C  0.1457700  0.7877700  0.2193700    0.00000       Uiso       1.00
       H76          H  0.4403300  0.7190300  0.8066800    0.00000       Uiso       1.00
       H77          H  0.0975700  0.7087400  0.2389000    0.00000       Uiso       1.00
       H78          H  0.1455900  0.7228300  0.2713900    0.00000       Uiso       1.00
       H79          H  0.1108600  0.7959100  0.1814100    0.00000       Uiso       1.00
       H80          H  0.1589500  0.8099200  0.2135900    0.00000       Uiso       1.00
       N11          N  0.4406300  0.2378900  0.6670500    0.00000       Uiso       1.00
       C91          C  0.4287000  0.2577000  0.6887200    0.00000       Uiso       1.00
       C92          C  0.4695600  0.2442800  0.6469900    0.00000       Uiso       1.00
       B11          B  0.3133400  0.2233700  0.7658600    0.00000       Uiso       1.00
       O11          O  0.2435600  0.2058700  0.1948000    0.00000       Uiso       1.00
       C93          C  0.7140600  0.8748299  0.5244100    0.00000       Uiso       1.00
       H81          H  0.6921000  0.8593500  0.5205399    0.00000       Uiso       1.00
       H82          H  0.7093900  0.8899500  0.5464400    0.00000       Uiso       1.00
       H83          H  0.2463500  0.5652300  0.4784700    0.00000       Uiso       1.00
       C94          C  0.1005000  0.2487800  0.2922300    0.00000       Uiso       1.00
       C95          C  0.1559500  0.2325300  0.2550100    0.00000       Uiso       1.00
       C96          C  0.1108400  0.2691400  0.2667600    0.00000       Uiso       1.00
       C97          C  0.1382700  0.2610400  0.2482100    0.00000       Uiso       1.00
       C98          C  0.1182200  0.2202200  0.2990300    0.00000       Uiso       1.00
       C99          C  0.1457700  0.2122300  0.2806300    0.00000       Uiso       1.00
       H84          H  0.4403300  0.2809700  0.6933200    0.00000       Uiso       1.00
       H85          H  0.0975700  0.2912600  0.2611000    0.00000       Uiso       1.00
       H86          H  0.1455900  0.2771700  0.2286100    0.00000       Uiso       1.00
       H87          H  0.1108600  0.2040900  0.3185900    0.00000       Uiso       1.00
       H88          H  0.1589500  0.1900800  0.2864100    0.00000       Uiso       1.00
       N12          N  0.9406300  0.7378900  0.1670500    0.00000       Uiso       1.00
      C100          C  0.9287000  0.7577000  0.1887200    0.00000       Uiso       1.00
      C101          C  0.9695600  0.7442800  0.1469900    0.00000       Uiso       1.00
       B12          B  0.8133399  0.7233700  0.2658600    0.00000       Uiso       1.00
       O12          O  0.7435600  0.7058700  0.6948000    0.00000       Uiso       1.00
      C102          C  0.2140600  0.3748300  0.0244100    0.00000       Uiso       1.00
       H89          H  0.1921000  0.3593500  0.0205400    0.00000       Uiso       1.00
       H90          H  0.2093900  0.3899500  0.0464400    0.00000       Uiso       1.00
       H91          H  0.7463500  0.0652300  0.9784699    0.00000       Uiso       1.00
      C103          C  0.6005000  0.7487800  0.7922300    0.00000       Uiso       1.00
      C104          C  0.6559500  0.7325300  0.7550099    0.00000       Uiso       1.00
      C105          C  0.6108400  0.7691399  0.7667600    0.00000       Uiso       1.00
      C106          C  0.6382700  0.7610400  0.7482100    0.00000       Uiso       1.00
      C107          C  0.6182200  0.7202200  0.7990300    0.00000       Uiso       1.00
      C108          C  0.6457700  0.7122300  0.7806300    0.00000       Uiso       1.00
       H92          H  0.9403299  0.7809700  0.1933200    0.00000       Uiso       1.00
       H93          H  0.5975700  0.7912600  0.7610999    0.00000       Uiso       1.00
       H94          H  0.6455899  0.7771700  0.7286100    0.00000       Uiso       1.00
       H95          H  0.6108600  0.7040900  0.8185900    0.00000       Uiso       1.00
       H96          H  0.6589500  0.6900800  0.7864100    0.00000       Uiso       1.00
       N13          N  0.5593700  0.7378900  0.8329500    0.00000       Uiso       1.00
      C109          C  0.5713000  0.7577000  0.8112800    0.00000       Uiso       1.00
      C110          C  0.5304400  0.7442800  0.8530099    0.00000       Uiso       1.00
       B13          B  0.6866600  0.7233700  0.7341400    0.00000       Uiso       1.00
       O13          O  0.7564400  0.7058700  0.3052000    0.00000       Uiso       1.00
      C111          C  0.2859400  0.3748300  0.9755900    0.00000       Uiso       1.00
       H97          H  0.3079000  0.3593500  0.9794600    0.00000       Uiso       1.00
       H98          H  0.2906100  0.3899500  0.9535600    0.00000       Uiso       1.00
       H99          H  0.7536500  0.0652300  0.0215300    0.00000       Uiso       1.00
      C112          C  0.8995000  0.7487800  0.2077700    0.00000       Uiso       1.00
      C113          C  0.8440500  0.7325300  0.2449900    0.00000       Uiso       1.00
      C114          C  0.8891600  0.7691399  0.2332400    0.00000       Uiso       1.00
      C115          C  0.8617300  0.7610400  0.2517900    0.00000       Uiso       1.00
      C116          C  0.8817800  0.7202200  0.2009700    0.00000       Uiso       1.00
      C117          C  0.8542299  0.7122300  0.2193700    0.00000       Uiso       1.00
      H100          H  0.5596700  0.7809700  0.8066800    0.00000       Uiso       1.00
      H101          H  0.9024300  0.7912600  0.2389000    0.00000       Uiso       1.00
      H102          H  0.8544099  0.7771700  0.2713900    0.00000       Uiso       1.00
      H103          H  0.8891400  0.7040900  0.1814100    0.00000       Uiso       1.00
      H104          H  0.8410500  0.6900800  0.2135900    0.00000       Uiso       1.00
       N14          N  0.0593700  0.2378900  0.3329500    0.00000       Uiso       1.00
      C118          C  0.0713000  0.2577000  0.3112800    0.00000       Uiso       1.00
      C119          C  0.0304400  0.2442800  0.3530100    0.00000       Uiso       1.00
       B14          B  0.1866600  0.2233700  0.2341400    0.00000       Uiso       1.00
       O14          O  0.2564400  0.2058700  0.8052000    0.00000       Uiso       1.00
      C120          C  0.7859400  0.8748299  0.4755900    0.00000       Uiso       1.00
      H105          H  0.8079000  0.8593500  0.4794600    0.00000       Uiso       1.00
      H106          H  0.7906100  0.8899500  0.4535600    0.00000       Uiso       1.00
      H107          H  0.2536500  0.5652300  0.5215300    0.00000       Uiso       1.00
      C121          C  0.3995000  0.2487800  0.7077699    0.00000       Uiso       1.00
      C122          C  0.3440500  0.2325300  0.7449900    0.00000       Uiso       1.00
      C123          C  0.3891600  0.2691400  0.7332399    0.00000       Uiso       1.00
      C124          C  0.3617300  0.2610400  0.7517900    0.00000       Uiso       1.00
      C125          C  0.3817800  0.2202200  0.7009700    0.00000       Uiso       1.00
      C126          C  0.3542300  0.2122300  0.7193700    0.00000       Uiso       1.00
      H108          H  0.0596700  0.2809700  0.3066800    0.00000       Uiso       1.00
      H109          H  0.4024300  0.2912600  0.7389000    0.00000       Uiso       1.00
      H110          H  0.3544100  0.2771700  0.7713900    0.00000       Uiso       1.00
      H111          H  0.3891400  0.2040900  0.6814100    0.00000       Uiso       1.00
      H112          H  0.3410500  0.1900800  0.7135900    0.00000       Uiso       1.00
       N15          N  0.0593700  0.7621099  0.1670500    0.00000       Uiso       1.00
      C127          C  0.0713000  0.7423000  0.1887200    0.00000       Uiso       1.00
      C128          C  0.0304400  0.7557200  0.1469900    0.00000       Uiso       1.00
       B15          B  0.1866600  0.7766300  0.2658600    0.00000       Uiso       1.00
       O15          O  0.2564400  0.7941300  0.6948000    0.00000       Uiso       1.00
      C129          C  0.7859400  0.1251700  0.0244100    0.00000       Uiso       1.00
      H113          H  0.8079000  0.1406500  0.0205400    0.00000       Uiso       1.00
      H114          H  0.7906100  0.1100500  0.0464400    0.00000       Uiso       1.00
      H115          H  0.2536500  0.4347700  0.9784699    0.00000       Uiso       1.00
      C130          C  0.3995000  0.7512200  0.7922300    0.00000       Uiso       1.00
      C131          C  0.3440500  0.7674699  0.7550099    0.00000       Uiso       1.00
      C132          C  0.3891600  0.7308600  0.7667600    0.00000       Uiso       1.00
      C133          C  0.3617300  0.7389600  0.7482100    0.00000       Uiso       1.00
      C134          C  0.3817800  0.7797800  0.7990300    0.00000       Uiso       1.00
      C135          C  0.3542300  0.7877700  0.7806300    0.00000       Uiso       1.00
      H116          H  0.0596700  0.7190300  0.1933200    0.00000       Uiso       1.00
      H117          H  0.4024300  0.7087400  0.7610999    0.00000       Uiso       1.00
      H118          H  0.3544100  0.7228300  0.7286100    0.00000       Uiso       1.00
      H119          H  0.3891400  0.7959100  0.8185900    0.00000       Uiso       1.00
      H120          H  0.3410500  0.8099200  0.7864100    0.00000       Uiso       1.00
       N16          N  0.5593700  0.2621100  0.6670500    0.00000       Uiso       1.00
      C136          C  0.5713000  0.2423000  0.6887200    0.00000       Uiso       1.00
      C137          C  0.5304400  0.2557200  0.6469900    0.00000       Uiso       1.00
       B16          B  0.6866600  0.2766300  0.7658600    0.00000       Uiso       1.00
       O16          O  0.7564400  0.2941300  0.1948000    0.00000       Uiso       1.00
      C138          C  0.2859400  0.6251700  0.5244100    0.00000       Uiso       1.00
      H121          H  0.3079000  0.6406500  0.5205399    0.00000       Uiso       1.00
      H122          H  0.2906100  0.6100500  0.5464400    0.00000       Uiso       1.00
      H123          H  0.7536500  0.9347699  0.4784700    0.00000       Uiso       1.00
      C139          C  0.8995000  0.2512200  0.2922300    0.00000       Uiso       1.00
      C140          C  0.8440500  0.2674700  0.2550100    0.00000       Uiso       1.00
      C141          C  0.8891600  0.2308600  0.2667600    0.00000       Uiso       1.00
      C142          C  0.8617300  0.2389600  0.2482100    0.00000       Uiso       1.00
      C143          C  0.8817800  0.2797800  0.2990300    0.00000       Uiso       1.00
      C144          C  0.8542299  0.2877700  0.2806300    0.00000       Uiso       1.00
      H124          H  0.5596700  0.2190300  0.6933200    0.00000       Uiso       1.00
      H125          H  0.9024300  0.2087400  0.2611000    0.00000       Uiso       1.00
      H126          H  0.8544099  0.2228300  0.2286100    0.00000       Uiso       1.00
      H127          H  0.8891400  0.2959100  0.3185900    0.00000       Uiso       1.00
      H128          H  0.8410500  0.3099200  0.2864100    0.00000       Uiso       1.00
       N17          N  0.3329500  0.9406300  0.2621100    0.00000       Uiso       1.00
      C145          C  0.3112800  0.9287000  0.2423000    0.00000       Uiso       1.00
      C146          C  0.3530100  0.9695600  0.2557200    0.00000       Uiso       1.00
       B17          B  0.2341400  0.8133399  0.2766300    0.00000       Uiso       1.00
       O17          O  0.8052000  0.7435600  0.2941300    0.00000       Uiso       1.00
      C147          C  0.4755900  0.2140600  0.6251700    0.00000       Uiso       1.00
      H129          H  0.4794600  0.1921000  0.6406500    0.00000       Uiso       1.00
      H130          H  0.4535600  0.2093900  0.6100500    0.00000       Uiso       1.00
      H131          H  0.5215300  0.7463500  0.9347699    0.00000       Uiso       1.00
      C148          C  0.7077699  0.6005000  0.2512200    0.00000       Uiso       1.00
      C149          C  0.7449900  0.6559500  0.2674700    0.00000       Uiso       1.00
      C150          C  0.7332399  0.6108400  0.2308600    0.00000       Uiso       1.00
      C151          C  0.7517900  0.6382700  0.2389600    0.00000       Uiso       1.00
      C152          C  0.7009700  0.6182200  0.2797800    0.00000       Uiso       1.00
      C153          C  0.7193700  0.6457700  0.2877700    0.00000       Uiso       1.00
      H132          H  0.3066800  0.9403299  0.2190300    0.00000       Uiso       1.00
      H133          H  0.7389000  0.5975700  0.2087400    0.00000       Uiso       1.00
      H134          H  0.7713900  0.6455899  0.2228300    0.00000       Uiso       1.00
      H135          H  0.6814100  0.6108600  0.2959100    0.00000       Uiso       1.00
      H136          H  0.7135900  0.6589500  0.3099200    0.00000       Uiso       1.00
       N18          N  0.8329500  0.4406300  0.7621099    0.00000       Uiso       1.00
      C154          C  0.8112800  0.4287000  0.7423000    0.00000       Uiso       1.00
      C155          C  0.8530099  0.4695600  0.7557200    0.00000       Uiso       1.00
       B18          B  0.7341400  0.3133400  0.7766300    0.00000       Uiso       1.00
       O18          O  0.3052000  0.2435600  0.7941300    0.00000       Uiso       1.00
      C156          C  0.9755900  0.7140600  0.1251700    0.00000       Uiso       1.00
      H137          H  0.9794600  0.6921000  0.1406500    0.00000       Uiso       1.00
      H138          H  0.9535600  0.7093900  0.1100500    0.00000       Uiso       1.00
      H139          H  0.0215300  0.2463500  0.4347700    0.00000       Uiso       1.00
      C157          C  0.2077700  0.1005000  0.7512200    0.00000       Uiso       1.00
      C158          C  0.2449900  0.1559500  0.7674699    0.00000       Uiso       1.00
      C159          C  0.2332400  0.1108400  0.7308600    0.00000       Uiso       1.00
      C160          C  0.2517900  0.1382700  0.7389600    0.00000       Uiso       1.00
      C161          C  0.2009700  0.1182200  0.7797800    0.00000       Uiso       1.00
      C162          C  0.2193700  0.1457700  0.7877700    0.00000       Uiso       1.00
      H140          H  0.8066800  0.4403300  0.7190300    0.00000       Uiso       1.00
      H141          H  0.2389000  0.0975700  0.7087400    0.00000       Uiso       1.00
      H142          H  0.2713900  0.1455900  0.7228300    0.00000       Uiso       1.00
      H143          H  0.1814100  0.1108600  0.7959100    0.00000       Uiso       1.00
      H144          H  0.2135900  0.1589500  0.8099200    0.00000       Uiso       1.00
       N19          N  0.6670500  0.4406300  0.2378900    0.00000       Uiso       1.00
      C163          C  0.6887200  0.4287000  0.2577000    0.00000       Uiso       1.00
      C164          C  0.6469900  0.4695600  0.2442800    0.00000       Uiso       1.00
       B19          B  0.7658600  0.3133400  0.2233700    0.00000       Uiso       1.00
       O19          O  0.1948000  0.2435600  0.2058700    0.00000       Uiso       1.00
      C165          C  0.5244100  0.7140600  0.8748299    0.00000       Uiso       1.00
      H145          H  0.5205399  0.6921000  0.8593500    0.00000       Uiso       1.00
      H146          H  0.5464400  0.7093900  0.8899500    0.00000       Uiso       1.00
      H147          H  0.4784700  0.2463500  0.5652300    0.00000       Uiso       1.00
      C166          C  0.2922300  0.1005000  0.2487800    0.00000       Uiso       1.00
      C167          C  0.2550100  0.1559500  0.2325300    0.00000       Uiso       1.00
      C168          C  0.2667600  0.1108400  0.2691400    0.00000       Uiso       1.00
      C169          C  0.2482100  0.1382700  0.2610400    0.00000       Uiso       1.00
      C170          C  0.2990300  0.1182200  0.2202200    0.00000       Uiso       1.00
      C171          C  0.2806300  0.1457700  0.2122300    0.00000       Uiso       1.00
      H148          H  0.6933200  0.4403300  0.2809700    0.00000       Uiso       1.00
      H149          H  0.2611000  0.0975700  0.2912600    0.00000       Uiso       1.00
      H150          H  0.2286100  0.1455900  0.2771700    0.00000       Uiso       1.00
      H151          H  0.3185900  0.1108600  0.2040900    0.00000       Uiso       1.00
      H152          H  0.2864100  0.1589500  0.1900800    0.00000       Uiso       1.00
       N20          N  0.1670500  0.9406300  0.7378900    0.00000       Uiso       1.00
      C172          C  0.1887200  0.9287000  0.7577000    0.00000       Uiso       1.00
      C173          C  0.1469900  0.9695600  0.7442800    0.00000       Uiso       1.00
       B20          B  0.2658600  0.8133399  0.7233700    0.00000       Uiso       1.00
       O20          O  0.6948000  0.7435600  0.7058700    0.00000       Uiso       1.00
      C174          C  0.0244100  0.2140600  0.3748300    0.00000       Uiso       1.00
      H153          H  0.0205400  0.1921000  0.3593500    0.00000       Uiso       1.00
      H154          H  0.0464400  0.2093900  0.3899500    0.00000       Uiso       1.00
      H155          H  0.9784699  0.7463500  0.0652300    0.00000       Uiso       1.00
      C175          C  0.7922300  0.6005000  0.7487800    0.00000       Uiso       1.00
      C176          C  0.7550099  0.6559500  0.7325300    0.00000       Uiso       1.00
      C177          C  0.7667600  0.6108400  0.7691399    0.00000       Uiso       1.00
      C178          C  0.7482100  0.6382700  0.7610400    0.00000       Uiso       1.00
      C179          C  0.7990300  0.6182200  0.7202200    0.00000       Uiso       1.00
      C180          C  0.7806300  0.6457700  0.7122300    0.00000       Uiso       1.00
      H156          H  0.1933200  0.9403299  0.7809700    0.00000       Uiso       1.00
      H157          H  0.7610999  0.5975700  0.7912600    0.00000       Uiso       1.00
      H158          H  0.7286100  0.6455899  0.7771700    0.00000       Uiso       1.00
      H159          H  0.8185900  0.6108600  0.7040900    0.00000       Uiso       1.00
      H160          H  0.7864100  0.6589500  0.6900800    0.00000       Uiso       1.00
       N21          N  0.8329500  0.5593700  0.7378900    0.00000       Uiso       1.00
      C181          C  0.8112800  0.5713000  0.7577000    0.00000       Uiso       1.00
      C182          C  0.8530099  0.5304400  0.7442800    0.00000       Uiso       1.00
       B21          B  0.7341400  0.6866600  0.7233700    0.00000       Uiso       1.00
       O21          O  0.3052000  0.7564400  0.7058700    0.00000       Uiso       1.00
      C183          C  0.9755900  0.2859400  0.3748300    0.00000       Uiso       1.00
      H161          H  0.9794600  0.3079000  0.3593500    0.00000       Uiso       1.00
      H162          H  0.9535600  0.2906100  0.3899500    0.00000       Uiso       1.00
      H163          H  0.0215300  0.7536500  0.0652300    0.00000       Uiso       1.00
      C184          C  0.2077700  0.8995000  0.7487800    0.00000       Uiso       1.00
      C185          C  0.2449900  0.8440500  0.7325300    0.00000       Uiso       1.00
      C186          C  0.2332400  0.8891600  0.7691399    0.00000       Uiso       1.00
      C187          C  0.2517900  0.8617300  0.7610400    0.00000       Uiso       1.00
      C188          C  0.2009700  0.8817800  0.7202200    0.00000       Uiso       1.00
      C189          C  0.2193700  0.8542299  0.7122300    0.00000       Uiso       1.00
      H164          H  0.8066800  0.5596700  0.7809700    0.00000       Uiso       1.00
      H165          H  0.2389000  0.9024300  0.7912600    0.00000       Uiso       1.00
      H166          H  0.2713900  0.8544099  0.7771700    0.00000       Uiso       1.00
      H167          H  0.1814100  0.8891400  0.7040900    0.00000       Uiso       1.00
      H168          H  0.2135900  0.8410500  0.6900800    0.00000       Uiso       1.00
       N22          N  0.3329500  0.0593700  0.2378900    0.00000       Uiso       1.00
      C190          C  0.3112800  0.0713000  0.2577000    0.00000       Uiso       1.00
      C191          C  0.3530100  0.0304400  0.2442800    0.00000       Uiso       1.00
       B22          B  0.2341400  0.1866600  0.2233700    0.00000       Uiso       1.00
       O22          O  0.8052000  0.2564400  0.2058700    0.00000       Uiso       1.00
      C192          C  0.4755900  0.7859400  0.8748299    0.00000       Uiso       1.00
      H169          H  0.4794600  0.8079000  0.8593500    0.00000       Uiso       1.00
      H170          H  0.4535600  0.7906100  0.8899500    0.00000       Uiso       1.00
      H171          H  0.5215300  0.2536500  0.5652300    0.00000       Uiso       1.00
      C193          C  0.7077699  0.3995000  0.2487800    0.00000       Uiso       1.00
      C194          C  0.7449900  0.3440500  0.2325300    0.00000       Uiso       1.00
      C195          C  0.7332399  0.3891600  0.2691400    0.00000       Uiso       1.00
      C196          C  0.7517900  0.3617300  0.2610400    0.00000       Uiso       1.00
      C197          C  0.7009700  0.3817800  0.2202200    0.00000       Uiso       1.00
      C198          C  0.7193700  0.3542300  0.2122300    0.00000       Uiso       1.00
      H172          H  0.3066800  0.0596700  0.2809700    0.00000       Uiso       1.00
      H173          H  0.7389000  0.4024300  0.2912600    0.00000       Uiso       1.00
      H174          H  0.7713900  0.3544100  0.2771700    0.00000       Uiso       1.00
      H175          H  0.6814100  0.3891400  0.2040900    0.00000       Uiso       1.00
      H176          H  0.7135900  0.3410500  0.1900800    0.00000       Uiso       1.00
       N23          N  0.1670500  0.0593700  0.7621099    0.00000       Uiso       1.00
      C199          C  0.1887200  0.0713000  0.7423000    0.00000       Uiso       1.00
      C200          C  0.1469900  0.0304400  0.7557200    0.00000       Uiso       1.00
       B23          B  0.2658600  0.1866600  0.7766300    0.00000       Uiso       1.00
       O23          O  0.6948000  0.2564400  0.7941300    0.00000       Uiso       1.00
      C201          C  0.0244100  0.7859400  0.1251700    0.00000       Uiso       1.00
      H177          H  0.0205400  0.8079000  0.1406500    0.00000       Uiso       1.00
      H178          H  0.0464400  0.7906100  0.1100500    0.00000       Uiso       1.00
      H179          H  0.9784699  0.2536500  0.4347700    0.00000       Uiso       1.00
      C202          C  0.7922300  0.3995000  0.7512200    0.00000       Uiso       1.00
      C203          C  0.7550099  0.3440500  0.7674699    0.00000       Uiso       1.00
      C204          C  0.7667600  0.3891600  0.7308600    0.00000       Uiso       1.00
      C205          C  0.7482100  0.3617300  0.7389600    0.00000       Uiso       1.00
      C206          C  0.7990300  0.3817800  0.7797800    0.00000       Uiso       1.00
      C207          C  0.7806300  0.3542300  0.7877700    0.00000       Uiso       1.00
      H180          H  0.1933200  0.0596700  0.7190300    0.00000       Uiso       1.00
      H181          H  0.7610999  0.4024300  0.7087400    0.00000       Uiso       1.00
      H182          H  0.7286100  0.3544100  0.7228300    0.00000       Uiso       1.00
      H183          H  0.8185900  0.3891400  0.7959100    0.00000       Uiso       1.00
      H184          H  0.7864100  0.3410500  0.8099200    0.00000       Uiso       1.00
       N24          N  0.6670500  0.5593700  0.2621100    0.00000       Uiso       1.00
      C208          C  0.6887200  0.5713000  0.2423000    0.00000       Uiso       1.00
      C209          C  0.6469900  0.5304400  0.2557200    0.00000       Uiso       1.00
       B24          B  0.7658600  0.6866600  0.2766300    0.00000       Uiso       1.00
       O24          O  0.1948000  0.7564400  0.2941300    0.00000       Uiso       1.00
      C210          C  0.5244100  0.2859400  0.6251700    0.00000       Uiso       1.00
      H185          H  0.5205399  0.3079000  0.6406500    0.00000       Uiso       1.00
      H186          H  0.5464400  0.2906100  0.6100500    0.00000       Uiso       1.00
      H187          H  0.4784700  0.7536500  0.9347699    0.00000       Uiso       1.00
      C211          C  0.2922300  0.8995000  0.2512200    0.00000       Uiso       1.00
      C212          C  0.2550100  0.8440500  0.2674700    0.00000       Uiso       1.00
      C213          C  0.2667600  0.8891600  0.2308600    0.00000       Uiso       1.00
      C214          C  0.2482100  0.8617300  0.2389600    0.00000       Uiso       1.00
      C215          C  0.2990300  0.8817800  0.2797800    0.00000       Uiso       1.00
      C216          C  0.2806300  0.8542299  0.2877700    0.00000       Uiso       1.00
      H188          H  0.6933200  0.5596700  0.2190300    0.00000       Uiso       1.00
      H189          H  0.2611000  0.9024300  0.2087400    0.00000       Uiso       1.00
      H190          H  0.2286100  0.8544099  0.2228300    0.00000       Uiso       1.00
      H191          H  0.3185900  0.8891400  0.2959100    0.00000       Uiso       1.00
      H192          H  0.2864100  0.8410500  0.3099200    0.00000       Uiso       1.00
       N25          N  0.5829500  0.5121100  0.1906300    0.00000       Uiso       1.00
      C217          C  0.5612800  0.4923000  0.1787000    0.00000       Uiso       1.00
      C218          C  0.6030100  0.5057200  0.2195600    0.00000       Uiso       1.00
       B25          B  0.4841400  0.5266300  0.0633400    0.00000       Uiso       1.00
       O25          O  0.0552000  0.5441300  0.9935600    0.00000       Uiso       1.00
      C219          C  0.7255900  0.8751699  0.4640600    0.00000       Uiso       1.00
      H193          H  0.7294599  0.8906500  0.4421000    0.00000       Uiso       1.00
      H194          H  0.7035600  0.8600500  0.4593900    0.00000       Uiso       1.00
      H195          H  0.7715300  0.1847700  0.9963500    0.00000       Uiso       1.00
      C220          C  0.9577699  0.5012200  0.8504999    0.00000       Uiso       1.00
      C221          C  0.9949900  0.5174700  0.9059500    0.00000       Uiso       1.00
      C222          C  0.9832399  0.4808600  0.8608400    0.00000       Uiso       1.00
      C223          C  0.0017900  0.4889600  0.8882700    0.00000       Uiso       1.00
      C224          C  0.9509699  0.5297800  0.8682200    0.00000       Uiso       1.00
      C225          C  0.9693699  0.5377700  0.8957700    0.00000       Uiso       1.00
      H196          H  0.5566800  0.4690300  0.1903300    0.00000       Uiso       1.00
      H197          H  0.9888999  0.4587400  0.8475699    0.00000       Uiso       1.00
      H198          H  0.0213900  0.4728300  0.8955899    0.00000       Uiso       1.00
      H199          H  0.9314100  0.5459100  0.8608600    0.00000       Uiso       1.00
      H200          H  0.9635900  0.5599200  0.9089500    0.00000       Uiso       1.00
       N26          N  0.0829500  0.0121100  0.6906300    0.00000       Uiso       1.00
      C226          C  0.0612800  0.9923000  0.6787000    0.00000       Uiso       1.00
      C227          C  0.1030100  0.0057200  0.7195600    0.00000       Uiso       1.00
       B26          B  0.9841400  0.0266300  0.5633400    0.00000       Uiso       1.00
       O26          O  0.5552000  0.0441300  0.4935600    0.00000       Uiso       1.00
      C228          C  0.2255900  0.3751700  0.9640600    0.00000       Uiso       1.00
      H201          H  0.2294600  0.3906500  0.9420999    0.00000       Uiso       1.00
      H202          H  0.2035600  0.3600500  0.9593900    0.00000       Uiso       1.00
      H203          H  0.2715300  0.6847700  0.4963500    0.00000       Uiso       1.00
      C229          C  0.4577700  0.0012200  0.3505000    0.00000       Uiso       1.00
      C230          C  0.4949900  0.0174700  0.4059500    0.00000       Uiso       1.00
      C231          C  0.4832400  0.9808599  0.3608400    0.00000       Uiso       1.00
      C232          C  0.5017900  0.9889600  0.3882700    0.00000       Uiso       1.00
      C233          C  0.4509700  0.0297800  0.3682200    0.00000       Uiso       1.00
      C234          C  0.4693700  0.0377700  0.3957700    0.00000       Uiso       1.00
      H204          H  0.0566800  0.9690300  0.6903300    0.00000       Uiso       1.00
      H205          H  0.4889000  0.9587400  0.3475700    0.00000       Uiso       1.00
      H206          H  0.5213900  0.9728299  0.3955900    0.00000       Uiso       1.00
      H207          H  0.4314100  0.0459100  0.3608600    0.00000       Uiso       1.00
      H208          H  0.4635900  0.0599200  0.4089500    0.00000       Uiso       1.00
       N27          N  0.9170500  0.4878900  0.6906300    0.00000       Uiso       1.00
      C235          C  0.9387199  0.5077000  0.6787000    0.00000       Uiso       1.00
      C236          C  0.8969900  0.4942800  0.7195600    0.00000       Uiso       1.00
       B27          B  0.0158600  0.4733700  0.5633400    0.00000       Uiso       1.00
       O27          O  0.4448000  0.4558700  0.4935600    0.00000       Uiso       1.00
      C237          C  0.7744100  0.1248300  0.9640600    0.00000       Uiso       1.00
      H209          H  0.7705400  0.1093500  0.9420999    0.00000       Uiso       1.00
      H210          H  0.7964400  0.1399500  0.9593900    0.00000       Uiso       1.00
      H211          H  0.7284700  0.8152300  0.4963500    0.00000       Uiso       1.00
      C238          C  0.5422300  0.4987800  0.3505000    0.00000       Uiso       1.00
      C239          C  0.5050100  0.4825300  0.4059500    0.00000       Uiso       1.00
      C240          C  0.5167600  0.5191400  0.3608400    0.00000       Uiso       1.00
      C241          C  0.4982100  0.5110400  0.3882700    0.00000       Uiso       1.00
      C242          C  0.5490300  0.4702200  0.3682200    0.00000       Uiso       1.00
      C243          C  0.5306300  0.4622300  0.3957700    0.00000       Uiso       1.00
      H212          H  0.9433200  0.5309700  0.6903300    0.00000       Uiso       1.00
      H213          H  0.5111000  0.5412599  0.3475700    0.00000       Uiso       1.00
      H214          H  0.4786100  0.5271700  0.3955900    0.00000       Uiso       1.00
      H215          H  0.5685900  0.4540900  0.3608600    0.00000       Uiso       1.00
      H216          H  0.5364100  0.4400800  0.4089500    0.00000       Uiso       1.00
       N28          N  0.4170500  0.9878899  0.1906300    0.00000       Uiso       1.00
      C244          C  0.4387200  0.0077000  0.1787000    0.00000       Uiso       1.00
      C245          C  0.3969900  0.9942799  0.2195600    0.00000       Uiso       1.00
       B28          B  0.5158600  0.9733700  0.0633400    0.00000       Uiso       1.00
       O28          O  0.9448000  0.9558700  0.9935600    0.00000       Uiso       1.00
      C246          C  0.2744100  0.6248300  0.4640600    0.00000       Uiso       1.00
      H217          H  0.2705400  0.6093500  0.4421000    0.00000       Uiso       1.00
      H218          H  0.2964400  0.6399500  0.4593900    0.00000       Uiso       1.00
      H219          H  0.2284700  0.3152300  0.9963500    0.00000       Uiso       1.00
      C247          C  0.0422300  0.9987800  0.8504999    0.00000       Uiso       1.00
      C248          C  0.0050100  0.9825299  0.9059500    0.00000       Uiso       1.00
      C249          C  0.0167600  0.0191400  0.8608400    0.00000       Uiso       1.00
      C250          C  0.9982100  0.0110400  0.8882700    0.00000       Uiso       1.00
      C251          C  0.0490300  0.9702200  0.8682200    0.00000       Uiso       1.00
      C252          C  0.0306300  0.9622299  0.8957700    0.00000       Uiso       1.00
      H220          H  0.4433200  0.0309700  0.1903300    0.00000       Uiso       1.00
      H221          H  0.0111000  0.0412600  0.8475699    0.00000       Uiso       1.00
      H222          H  0.9786100  0.0271700  0.8955899    0.00000       Uiso       1.00
      H223          H  0.0685900  0.9540900  0.8608600    0.00000       Uiso       1.00
      H224          H  0.0364100  0.9400800  0.9089500    0.00000       Uiso       1.00
       N29          N  0.0829500  0.9878899  0.8093700    0.00000       Uiso       1.00
      C253          C  0.0612800  0.0077000  0.8212999    0.00000       Uiso       1.00
      C254          C  0.1030100  0.9942799  0.7804400    0.00000       Uiso       1.00
       B29          B  0.9841400  0.9733700  0.9366599    0.00000       Uiso       1.00
       O29          O  0.5552000  0.9558700  0.0064400    0.00000       Uiso       1.00
      C255          C  0.2255900  0.6248300  0.5359400    0.00000       Uiso       1.00
      H225          H  0.2294600  0.6093500  0.5579000    0.00000       Uiso       1.00
      H226          H  0.2035600  0.6399500  0.5406100    0.00000       Uiso       1.00
      H227          H  0.2715300  0.3152300  0.0036500    0.00000       Uiso       1.00
      C256          C  0.4577700  0.9987800  0.1495000    0.00000       Uiso       1.00
      C257          C  0.4949900  0.9825299  0.0940500    0.00000       Uiso       1.00
      C258          C  0.4832400  0.0191400  0.1391600    0.00000       Uiso       1.00
      C259          C  0.5017900  0.0110400  0.1117300    0.00000       Uiso       1.00
      C260          C  0.4509700  0.9702200  0.1317800    0.00000       Uiso       1.00
      C261          C  0.4693700  0.9622299  0.1042300    0.00000       Uiso       1.00
      H228          H  0.0566800  0.0309700  0.8096700    0.00000       Uiso       1.00
      H229          H  0.4889000  0.0412600  0.1524300    0.00000       Uiso       1.00
      H230          H  0.5213900  0.0271700  0.1044100    0.00000       Uiso       1.00
      H231          H  0.4314100  0.9540900  0.1391400    0.00000       Uiso       1.00
      H232          H  0.4635900  0.9400800  0.0910500    0.00000       Uiso       1.00
       N30          N  0.5829500  0.4878900  0.3093700    0.00000       Uiso       1.00
      C262          C  0.5612800  0.5077000  0.3213000    0.00000       Uiso       1.00
      C263          C  0.6030100  0.4942800  0.2804400    0.00000       Uiso       1.00
       B30          B  0.4841400  0.4733700  0.4366600    0.00000       Uiso       1.00
       O30          O  0.0552000  0.4558700  0.5064400    0.00000       Uiso       1.00
      C264          C  0.7255900  0.1248300  0.0359400    0.00000       Uiso       1.00
      H233          H  0.7294599  0.1093500  0.0579000    0.00000       Uiso       1.00
      H234          H  0.7035600  0.1399500  0.0406100    0.00000       Uiso       1.00
      H235          H  0.7715300  0.8152300  0.5036500    0.00000       Uiso       1.00
      C265          C  0.9577699  0.4987800  0.6495000    0.00000       Uiso       1.00
      C266          C  0.9949900  0.4825300  0.5940499    0.00000       Uiso       1.00
      C267          C  0.9832399  0.5191400  0.6391600    0.00000       Uiso       1.00
      C268          C  0.0017900  0.5110400  0.6117300    0.00000       Uiso       1.00
      C269          C  0.9509699  0.4702200  0.6317800    0.00000       Uiso       1.00
      C270          C  0.9693699  0.4622300  0.6042300    0.00000       Uiso       1.00
      H236          H  0.5566800  0.5309700  0.3096700    0.00000       Uiso       1.00
      H237          H  0.9888999  0.5412599  0.6524300    0.00000       Uiso       1.00
      H238          H  0.0213900  0.5271700  0.6044099    0.00000       Uiso       1.00
      H239          H  0.9314100  0.4540900  0.6391400    0.00000       Uiso       1.00
      H240          H  0.9635900  0.4400800  0.5910500    0.00000       Uiso       1.00
       N31          N  0.4170500  0.0121100  0.3093700    0.00000       Uiso       1.00
      C271          C  0.4387200  0.9923000  0.3213000    0.00000       Uiso       1.00
      C272          C  0.3969900  0.0057200  0.2804400    0.00000       Uiso       1.00
       B31          B  0.5158600  0.0266300  0.4366600    0.00000       Uiso       1.00
       O31          O  0.9448000  0.0441300  0.5064400    0.00000       Uiso       1.00
      C273          C  0.2744100  0.3751700  0.0359400    0.00000       Uiso       1.00
      H241          H  0.2705400  0.3906500  0.0579000    0.00000       Uiso       1.00
      H242          H  0.2964400  0.3600500  0.0406100    0.00000       Uiso       1.00
      H243          H  0.2284700  0.6847700  0.5036500    0.00000       Uiso       1.00
      C274          C  0.0422300  0.0012200  0.6495000    0.00000       Uiso       1.00
      C275          C  0.0050100  0.0174700  0.5940499    0.00000       Uiso       1.00
      C276          C  0.0167600  0.9808599  0.6391600    0.00000       Uiso       1.00
      C277          C  0.9982100  0.9889600  0.6117300    0.00000       Uiso       1.00
      C278          C  0.0490300  0.0297800  0.6317800    0.00000       Uiso       1.00
      C279          C  0.0306300  0.0377700  0.6042300    0.00000       Uiso       1.00
      H244          H  0.4433200  0.9690300  0.3096700    0.00000       Uiso       1.00
      H245          H  0.0111000  0.9587400  0.6524300    0.00000       Uiso       1.00
      H246          H  0.9786100  0.9728299  0.6044099    0.00000       Uiso       1.00
      H247          H  0.0685900  0.0459100  0.6391400    0.00000       Uiso       1.00
      H248          H  0.0364100  0.0599200  0.5910500    0.00000       Uiso       1.00
       N32          N  0.9170500  0.5121100  0.8093700    0.00000       Uiso       1.00
      C280          C  0.9387199  0.4923000  0.8212999    0.00000       Uiso       1.00
      C281          C  0.8969900  0.5057200  0.7804400    0.00000       Uiso       1.00
       B32          B  0.0158600  0.5266300  0.9366599    0.00000       Uiso       1.00
       O32          O  0.4448000  0.5441300  0.0064400    0.00000       Uiso       1.00
      C282          C  0.7744100  0.8751699  0.5359400    0.00000       Uiso       1.00
      H249          H  0.7705400  0.8906500  0.5579000    0.00000       Uiso       1.00
      H250          H  0.7964400  0.8600500  0.5406100    0.00000       Uiso       1.00
      H251          H  0.7284700  0.1847700  0.0036500    0.00000       Uiso       1.00
      C283          C  0.5422300  0.5012200  0.1495000    0.00000       Uiso       1.00
      C284          C  0.5050100  0.5174700  0.0940500    0.00000       Uiso       1.00
      C285          C  0.5167600  0.4808600  0.1391600    0.00000       Uiso       1.00
      C286          C  0.4982100  0.4889600  0.1117300    0.00000       Uiso       1.00
      C287          C  0.5490300  0.5297800  0.1317800    0.00000       Uiso       1.00
      C288          C  0.5306300  0.5377700  0.1042300    0.00000       Uiso       1.00
      H252          H  0.9433200  0.4690300  0.8096700    0.00000       Uiso       1.00
      H253          H  0.5111000  0.4587400  0.1524300    0.00000       Uiso       1.00
      H254          H  0.4786100  0.4728300  0.1044100    0.00000       Uiso       1.00
      H255          H  0.5685900  0.5459100  0.1391400    0.00000       Uiso       1.00
      H256          H  0.5364100  0.5599200  0.0910500    0.00000       Uiso       1.00
       N33          N  0.5121100  0.1906300  0.5829500    0.00000       Uiso       1.00
      C289          C  0.4923000  0.1787000  0.5612800    0.00000       Uiso       1.00
      C290          C  0.5057200  0.2195600  0.6030100    0.00000       Uiso       1.00
       B33          B  0.5266300  0.0633400  0.4841400    0.00000       Uiso       1.00
       O33          O  0.5441300  0.9935600  0.0552000    0.00000       Uiso       1.00
      C291          C  0.8751699  0.4640600  0.7255900    0.00000       Uiso       1.00
      H257          H  0.8906500  0.4421000  0.7294599    0.00000       Uiso       1.00
      H258          H  0.8600500  0.4593900  0.7035600    0.00000       Uiso       1.00
      H259          H  0.1847700  0.9963500  0.7715300    0.00000       Uiso       1.00
      C292          C  0.5012200  0.8504999  0.9577699    0.00000       Uiso       1.00
      C293          C  0.5174700  0.9059500  0.9949900    0.00000       Uiso       1.00
      C294          C  0.4808600  0.8608400  0.9832399    0.00000       Uiso       1.00
      C295          C  0.4889600  0.8882700  0.0017900    0.00000       Uiso       1.00
      C296          C  0.5297800  0.8682200  0.9509699    0.00000       Uiso       1.00
      C297          C  0.5377700  0.8957700  0.9693699    0.00000       Uiso       1.00
      H260          H  0.4690300  0.1903300  0.5566800    0.00000       Uiso       1.00
      H261          H  0.4587400  0.8475699  0.9888999    0.00000       Uiso       1.00
      H262          H  0.4728300  0.8955899  0.0213900    0.00000       Uiso       1.00
      H263          H  0.5459100  0.8608600  0.9314100    0.00000       Uiso       1.00
      H264          H  0.5599200  0.9089500  0.9635900    0.00000       Uiso       1.00
       N34          N  0.0121100  0.6906300  0.0829500    0.00000       Uiso       1.00
      C298          C  0.9923000  0.6787000  0.0612800    0.00000       Uiso       1.00
      C299          C  0.0057200  0.7195600  0.1030100    0.00000       Uiso       1.00
       B34          B  0.0266300  0.5633400  0.9841400    0.00000       Uiso       1.00
       O34          O  0.0441300  0.4935600  0.5552000    0.00000       Uiso       1.00
      C300          C  0.3751700  0.9640600  0.2255900    0.00000       Uiso       1.00
      H265          H  0.3906500  0.9420999  0.2294600    0.00000       Uiso       1.00
      H266          H  0.3600500  0.9593900  0.2035600    0.00000       Uiso       1.00
      H267          H  0.6847700  0.4963500  0.2715300    0.00000       Uiso       1.00
      C301          C  0.0012200  0.3505000  0.4577700    0.00000       Uiso       1.00
      C302          C  0.0174700  0.4059500  0.4949900    0.00000       Uiso       1.00
      C303          C  0.9808599  0.3608400  0.4832400    0.00000       Uiso       1.00
      C304          C  0.9889600  0.3882700  0.5017900    0.00000       Uiso       1.00
      C305          C  0.0297800  0.3682200  0.4509700    0.00000       Uiso       1.00
      C306          C  0.0377700  0.3957700  0.4693700    0.00000       Uiso       1.00
      H268          H  0.9690300  0.6903300  0.0566800    0.00000       Uiso       1.00
      H269          H  0.9587400  0.3475700  0.4889000    0.00000       Uiso       1.00
      H270          H  0.9728299  0.3955900  0.5213900    0.00000       Uiso       1.00
      H271          H  0.0459100  0.3608600  0.4314100    0.00000       Uiso       1.00
      H272          H  0.0599200  0.4089500  0.4635900    0.00000       Uiso       1.00
       N35          N  0.4878900  0.6906300  0.9170500    0.00000       Uiso       1.00
      C307          C  0.5077000  0.6787000  0.9387199    0.00000       Uiso       1.00
      C308          C  0.4942800  0.7195600  0.8969900    0.00000       Uiso       1.00
       B35          B  0.4733700  0.5633400  0.0158600    0.00000       Uiso       1.00
       O35          O  0.4558700  0.4935600  0.4448000    0.00000       Uiso       1.00
      C309          C  0.1248300  0.9640600  0.7744100    0.00000       Uiso       1.00
      H273          H  0.1093500  0.9420999  0.7705400    0.00000       Uiso       1.00
      H274          H  0.1399500  0.9593900  0.7964400    0.00000       Uiso       1.00
      H275          H  0.8152300  0.4963500  0.7284700    0.00000       Uiso       1.00
      C310          C  0.4987800  0.3505000  0.5422300    0.00000       Uiso       1.00
      C311          C  0.4825300  0.4059500  0.5050100    0.00000       Uiso       1.00
      C312          C  0.5191400  0.3608400  0.5167600    0.00000       Uiso       1.00
      C313          C  0.5110400  0.3882700  0.4982100    0.00000       Uiso       1.00
      C314          C  0.4702200  0.3682200  0.5490300    0.00000       Uiso       1.00
      C315          C  0.4622300  0.3957700  0.5306300    0.00000       Uiso       1.00
      H276          H  0.5309700  0.6903300  0.9433200    0.00000       Uiso       1.00
      H277          H  0.5412599  0.3475700  0.5111000    0.00000       Uiso       1.00
      H278          H  0.5271700  0.3955900  0.4786100    0.00000       Uiso       1.00
      H279          H  0.4540900  0.3608600  0.5685900    0.00000       Uiso       1.00
      H280          H  0.4400800  0.4089500  0.5364100    0.00000       Uiso       1.00
       N36          N  0.9878899  0.1906300  0.4170500    0.00000       Uiso       1.00
      C316          C  0.0077000  0.1787000  0.4387200    0.00000       Uiso       1.00
      C317          C  0.9942799  0.2195600  0.3969900    0.00000       Uiso       1.00
       B36          B  0.9733700  0.0633400  0.5158600    0.00000       Uiso       1.00
       O36          O  0.9558700  0.9935600  0.9448000    0.00000       Uiso       1.00
      C318          C  0.6248300  0.4640600  0.2744100    0.00000       Uiso       1.00
      H281          H  0.6093500  0.4421000  0.2705400    0.00000       Uiso       1.00
      H282          H  0.6399500  0.4593900  0.2964400    0.00000       Uiso       1.00
      H283          H  0.3152300  0.9963500  0.2284700    0.00000       Uiso       1.00
      C319          C  0.9987800  0.8504999  0.0422300    0.00000       Uiso       1.00
      C320          C  0.9825299  0.9059500  0.0050100    0.00000       Uiso       1.00
      C321          C  0.0191400  0.8608400  0.0167600    0.00000       Uiso       1.00
      C322          C  0.0110400  0.8882700  0.9982100    0.00000       Uiso       1.00
      C323          C  0.9702200  0.8682200  0.0490300    0.00000       Uiso       1.00
      C324          C  0.9622299  0.8957700  0.0306300    0.00000       Uiso       1.00
      H284          H  0.0309700  0.1903300  0.4433200    0.00000       Uiso       1.00
      H285          H  0.0412600  0.8475699  0.0111000    0.00000       Uiso       1.00
      H286          H  0.0271700  0.8955899  0.9786100    0.00000       Uiso       1.00
      H287          H  0.9540900  0.8608600  0.0685900    0.00000       Uiso       1.00
      H288          H  0.9400800  0.9089500  0.0364100    0.00000       Uiso       1.00
       N37          N  0.9878899  0.8093700  0.0829500    0.00000       Uiso       1.00
      C325          C  0.0077000  0.8212999  0.0612800    0.00000       Uiso       1.00
      C326          C  0.9942799  0.7804400  0.1030100    0.00000       Uiso       1.00
       B37          B  0.9733700  0.9366599  0.9841400    0.00000       Uiso       1.00
       O37          O  0.9558700  0.0064400  0.5552000    0.00000       Uiso       1.00
      C327          C  0.6248300  0.5359400  0.2255900    0.00000       Uiso       1.00
      H289          H  0.6093500  0.5579000  0.2294600    0.00000       Uiso       1.00
      H290          H  0.6399500  0.5406100  0.2035600    0.00000       Uiso       1.00
      H291          H  0.3152300  0.0036500  0.2715300    0.00000       Uiso       1.00
      C328          C  0.9987800  0.1495000  0.4577700    0.00000       Uiso       1.00
      C329          C  0.9825299  0.0940500  0.4949900    0.00000       Uiso       1.00
      C330          C  0.0191400  0.1391600  0.4832400    0.00000       Uiso       1.00
      C331          C  0.0110400  0.1117300  0.5017900    0.00000       Uiso       1.00
      C332          C  0.9702200  0.1317800  0.4509700    0.00000       Uiso       1.00
      C333          C  0.9622299  0.1042300  0.4693700    0.00000       Uiso       1.00
      H292          H  0.0309700  0.8096700  0.0566800    0.00000       Uiso       1.00
      H293          H  0.0412600  0.1524300  0.4889000    0.00000       Uiso       1.00
      H294          H  0.0271700  0.1044100  0.5213900    0.00000       Uiso       1.00
      H295          H  0.9540900  0.1391400  0.4314100    0.00000       Uiso       1.00
      H296          H  0.9400800  0.0910500  0.4635900    0.00000       Uiso       1.00
       N38          N  0.4878900  0.3093700  0.5829500    0.00000       Uiso       1.00
      C334          C  0.5077000  0.3213000  0.5612800    0.00000       Uiso       1.00
      C335          C  0.4942800  0.2804400  0.6030100    0.00000       Uiso       1.00
       B38          B  0.4733700  0.4366600  0.4841400    0.00000       Uiso       1.00
       O38          O  0.4558700  0.5064400  0.0552000    0.00000       Uiso       1.00
      C336          C  0.1248300  0.0359400  0.7255900    0.00000       Uiso       1.00
      H297          H  0.1093500  0.0579000  0.7294599    0.00000       Uiso       1.00
      H298          H  0.1399500  0.0406100  0.7035600    0.00000       Uiso       1.00
      H299          H  0.8152300  0.5036500  0.7715300    0.00000       Uiso       1.00
      C337          C  0.4987800  0.6495000  0.9577699    0.00000       Uiso       1.00
      C338          C  0.4825300  0.5940499  0.9949900    0.00000       Uiso       1.00
      C339          C  0.5191400  0.6391600  0.9832399    0.00000       Uiso       1.00
      C340          C  0.5110400  0.6117300  0.0017900    0.00000       Uiso       1.00
      C341          C  0.4702200  0.6317800  0.9509699    0.00000       Uiso       1.00
      C342          C  0.4622300  0.6042300  0.9693699    0.00000       Uiso       1.00
      H300          H  0.5309700  0.3096700  0.5566800    0.00000       Uiso       1.00
      H301          H  0.5412599  0.6524300  0.9888999    0.00000       Uiso       1.00
      H302          H  0.5271700  0.6044099  0.0213900    0.00000       Uiso       1.00
      H303          H  0.4540900  0.6391400  0.9314100    0.00000       Uiso       1.00
      H304          H  0.4400800  0.5910500  0.9635900    0.00000       Uiso       1.00
       N39          N  0.0121100  0.3093700  0.4170500    0.00000       Uiso       1.00
      C343          C  0.9923000  0.3213000  0.4387200    0.00000       Uiso       1.00
      C344          C  0.0057200  0.2804400  0.3969900    0.00000       Uiso       1.00
       B39          B  0.0266300  0.4366600  0.5158600    0.00000       Uiso       1.00
       O39          O  0.0441300  0.5064400  0.9448000    0.00000       Uiso       1.00
      C345          C  0.3751700  0.0359400  0.2744100    0.00000       Uiso       1.00
      H305          H  0.3906500  0.0579000  0.2705400    0.00000       Uiso       1.00
      H306          H  0.3600500  0.0406100  0.2964400    0.00000       Uiso       1.00
      H307          H  0.6847700  0.5036500  0.2284700    0.00000       Uiso       1.00
      C346          C  0.0012200  0.6495000  0.0422300    0.00000       Uiso       1.00
      C347          C  0.0174700  0.5940499  0.0050100    0.00000       Uiso       1.00
      C348          C  0.9808599  0.6391600  0.0167600    0.00000       Uiso       1.00
      C349          C  0.9889600  0.6117300  0.9982100    0.00000       Uiso       1.00
      C350          C  0.0297800  0.6317800  0.0490300    0.00000       Uiso       1.00
      C351          C  0.0377700  0.6042300  0.0306300    0.00000       Uiso       1.00
      H308          H  0.9690300  0.3096700  0.4433200    0.00000       Uiso       1.00
      H309          H  0.9587400  0.6524300  0.0111000    0.00000       Uiso       1.00
      H310          H  0.9728299  0.6044099  0.9786100    0.00000       Uiso       1.00
      H311          H  0.0459100  0.6391400  0.0685900    0.00000       Uiso       1.00
      H312          H  0.0599200  0.5910500  0.0364100    0.00000       Uiso       1.00
       N40          N  0.5121100  0.8093700  0.9170500    0.00000       Uiso       1.00
      C352          C  0.4923000  0.8212999  0.9387199    0.00000       Uiso       1.00
      C353          C  0.5057200  0.7804400  0.8969900    0.00000       Uiso       1.00
       B40          B  0.5266300  0.9366599  0.0158600    0.00000       Uiso       1.00
       O40          O  0.5441300  0.0064400  0.4448000    0.00000       Uiso       1.00
      C354          C  0.8751699  0.5359400  0.7744100    0.00000       Uiso       1.00
      H313          H  0.8906500  0.5579000  0.7705400    0.00000       Uiso       1.00
      H314          H  0.8600500  0.5406100  0.7964400    0.00000       Uiso       1.00
      H315          H  0.1847700  0.0036500  0.7284700    0.00000       Uiso       1.00
      C355          C  0.5012200  0.1495000  0.5422300    0.00000       Uiso       1.00
      C356          C  0.5174700  0.0940500  0.5050100    0.00000       Uiso       1.00
      C357          C  0.4808600  0.1391600  0.5167600    0.00000       Uiso       1.00
      C358          C  0.4889600  0.1117300  0.4982100    0.00000       Uiso       1.00
      C359          C  0.5297800  0.1317800  0.5490300    0.00000       Uiso       1.00
      C360          C  0.5377700  0.1042300  0.5306300    0.00000       Uiso       1.00
      H316          H  0.4690300  0.8096700  0.9433200    0.00000       Uiso       1.00
      H317          H  0.4587400  0.1524300  0.5111000    0.00000       Uiso       1.00
      H318          H  0.4728300  0.1044100  0.4786100    0.00000       Uiso       1.00
      H319          H  0.5459100  0.1391400  0.5685900    0.00000       Uiso       1.00
      H320          H  0.5599200  0.0910500  0.5364100    0.00000       Uiso       1.00
       N41          N  0.1906300  0.5829500  0.5121100    0.00000       Uiso       1.00
      C361          C  0.1787000  0.5612800  0.4923000    0.00000       Uiso       1.00
      C362          C  0.2195600  0.6030100  0.5057200    0.00000       Uiso       1.00
       B41          B  0.0633400  0.4841400  0.5266300    0.00000       Uiso       1.00
       O41          O  0.9935600  0.0552000  0.5441300    0.00000       Uiso       1.00
      C363          C  0.4640600  0.7255900  0.8751699    0.00000       Uiso       1.00
      H321          H  0.4421000  0.7294599  0.8906500    0.00000       Uiso       1.00
      H322          H  0.4593900  0.7035600  0.8600500    0.00000       Uiso       1.00
      H323          H  0.9963500  0.7715300  0.1847700    0.00000       Uiso       1.00
      C364          C  0.8504999  0.9577699  0.5012200    0.00000       Uiso       1.00
      C365          C  0.9059500  0.9949900  0.5174700    0.00000       Uiso       1.00
      C366          C  0.8608400  0.9832399  0.4808600    0.00000       Uiso       1.00
      C367          C  0.8882700  0.0017900  0.4889600    0.00000       Uiso       1.00
      C368          C  0.8682200  0.9509699  0.5297800    0.00000       Uiso       1.00
      C369          C  0.8957700  0.9693699  0.5377700    0.00000       Uiso       1.00
      H324          H  0.1903300  0.5566800  0.4690300    0.00000       Uiso       1.00
      H325          H  0.8475699  0.9888999  0.4587400    0.00000       Uiso       1.00
      H326          H  0.8955899  0.0213900  0.4728300    0.00000       Uiso       1.00
      H327          H  0.8608600  0.9314100  0.5459100    0.00000       Uiso       1.00
      H328          H  0.9089500  0.9635900  0.5599200    0.00000       Uiso       1.00
       N42          N  0.6906300  0.0829500  0.0121100    0.00000       Uiso       1.00
      C370          C  0.6787000  0.0612800  0.9923000    0.00000       Uiso       1.00
      C371          C  0.7195600  0.1030100  0.0057200    0.00000       Uiso       1.00
       B42          B  0.5633400  0.9841400  0.0266300    0.00000       Uiso       1.00
       O42          O  0.4935600  0.5552000  0.0441300    0.00000       Uiso       1.00
      C372          C  0.9640600  0.2255900  0.3751700    0.00000       Uiso       1.00
      H329          H  0.9420999  0.2294600  0.3906500    0.00000       Uiso       1.00
      H330          H  0.9593900  0.2035600  0.3600500    0.00000       Uiso       1.00
      H331          H  0.4963500  0.2715300  0.6847700    0.00000       Uiso       1.00
      C373          C  0.3505000  0.4577700  0.0012200    0.00000       Uiso       1.00
      C374          C  0.4059500  0.4949900  0.0174700    0.00000       Uiso       1.00
      C375          C  0.3608400  0.4832400  0.9808599    0.00000       Uiso       1.00
      C376          C  0.3882700  0.5017900  0.9889600    0.00000       Uiso       1.00
      C377          C  0.3682200  0.4509700  0.0297800    0.00000       Uiso       1.00
      C378          C  0.3957700  0.4693700  0.0377700    0.00000       Uiso       1.00
      H332          H  0.6903300  0.0566800  0.9690300    0.00000       Uiso       1.00
      H333          H  0.3475700  0.4889000  0.9587400    0.00000       Uiso       1.00
      H334          H  0.3955900  0.5213900  0.9728299    0.00000       Uiso       1.00
      H335          H  0.3608600  0.4314100  0.0459100    0.00000       Uiso       1.00
      H336          H  0.4089500  0.4635900  0.0599200    0.00000       Uiso       1.00
       N43          N  0.6906300  0.9170500  0.4878900    0.00000       Uiso       1.00
      C379          C  0.6787000  0.9387199  0.5077000    0.00000       Uiso       1.00
      C380          C  0.7195600  0.8969900  0.4942800    0.00000       Uiso       1.00
       B43          B  0.5633400  0.0158600  0.4733700    0.00000       Uiso       1.00
       O43          O  0.4935600  0.4448000  0.4558700    0.00000       Uiso       1.00
      C381          C  0.9640600  0.7744100  0.1248300    0.00000       Uiso       1.00
      H337          H  0.9420999  0.7705400  0.1093500    0.00000       Uiso       1.00
      H338          H  0.9593900  0.7964400  0.1399500    0.00000       Uiso       1.00
      H339          H  0.4963500  0.7284700  0.8152300    0.00000       Uiso       1.00
      C382          C  0.3505000  0.5422300  0.4987800    0.00000       Uiso       1.00
      C383          C  0.4059500  0.5050100  0.4825300    0.00000       Uiso       1.00
      C384          C  0.3608400  0.5167600  0.5191400    0.00000       Uiso       1.00
      C385          C  0.3882700  0.4982100  0.5110400    0.00000       Uiso       1.00
      C386          C  0.3682200  0.5490300  0.4702200    0.00000       Uiso       1.00
      C387          C  0.3957700  0.5306300  0.4622300    0.00000       Uiso       1.00
      H340          H  0.6903300  0.9433200  0.5309700    0.00000       Uiso       1.00
      H341          H  0.3475700  0.5111000  0.5412599    0.00000       Uiso       1.00
      H342          H  0.3955900  0.4786100  0.5271700    0.00000       Uiso       1.00
      H343          H  0.3608600  0.5685900  0.4540900    0.00000       Uiso       1.00
      H344          H  0.4089500  0.5364100  0.4400800    0.00000       Uiso       1.00
       N44          N  0.1906300  0.4170500  0.9878899    0.00000       Uiso       1.00
      C388          C  0.1787000  0.4387200  0.0077000    0.00000       Uiso       1.00
      C389          C  0.2195600  0.3969900  0.9942799    0.00000       Uiso       1.00
       B44          B  0.0633400  0.5158600  0.9733700    0.00000       Uiso       1.00
       O44          O  0.9935600  0.9448000  0.9558700    0.00000       Uiso       1.00
      C390          C  0.4640600  0.2744100  0.6248300    0.00000       Uiso       1.00
      H345          H  0.4421000  0.2705400  0.6093500    0.00000       Uiso       1.00
      H346          H  0.4593900  0.2964400  0.6399500    0.00000       Uiso       1.00
      H347          H  0.9963500  0.2284700  0.3152300    0.00000       Uiso       1.00
      C391          C  0.8504999  0.0422300  0.9987800    0.00000       Uiso       1.00
      C392          C  0.9059500  0.0050100  0.9825299    0.00000       Uiso       1.00
      C393          C  0.8608400  0.0167600  0.0191400    0.00000       Uiso       1.00
      C394          C  0.8882700  0.9982100  0.0110400    0.00000       Uiso       1.00
      C395          C  0.8682200  0.0490300  0.9702200    0.00000       Uiso       1.00
      C396          C  0.8957700  0.0306300  0.9622299    0.00000       Uiso       1.00
      H348          H  0.1903300  0.4433200  0.0309700    0.00000       Uiso       1.00
      H349          H  0.8475699  0.0111000  0.0412600    0.00000       Uiso       1.00
      H350          H  0.8955899  0.9786100  0.0271700    0.00000       Uiso       1.00
      H351          H  0.8608600  0.0685900  0.9540900    0.00000       Uiso       1.00
      H352          H  0.9089500  0.0364100  0.9400800    0.00000       Uiso       1.00
       N45          N  0.8093700  0.0829500  0.9878899    0.00000       Uiso       1.00
      C397          C  0.8212999  0.0612800  0.0077000    0.00000       Uiso       1.00
      C398          C  0.7804400  0.1030100  0.9942799    0.00000       Uiso       1.00
       B45          B  0.9366599  0.9841400  0.9733700    0.00000       Uiso       1.00
       O45          O  0.0064400  0.5552000  0.9558700    0.00000       Uiso       1.00
      C399          C  0.5359400  0.2255900  0.6248300    0.00000       Uiso       1.00
      H353          H  0.5579000  0.2294600  0.6093500    0.00000       Uiso       1.00
      H354          H  0.5406100  0.2035600  0.6399500    0.00000       Uiso       1.00
      H355          H  0.0036500  0.2715300  0.3152300    0.00000       Uiso       1.00
      C400          C  0.1495000  0.4577700  0.9987800    0.00000       Uiso       1.00
      C401          C  0.0940500  0.4949900  0.9825299    0.00000       Uiso       1.00
      C402          C  0.1391600  0.4832400  0.0191400    0.00000       Uiso       1.00
      C403          C  0.1117300  0.5017900  0.0110400    0.00000       Uiso       1.00
      C404          C  0.1317800  0.4509700  0.9702200    0.00000       Uiso       1.00
      C405          C  0.1042300  0.4693700  0.9622299    0.00000       Uiso       1.00
      H356          H  0.8096700  0.0566800  0.0309700    0.00000       Uiso       1.00
      H357          H  0.1524300  0.4889000  0.0412600    0.00000       Uiso       1.00
      H358          H  0.1044100  0.5213900  0.0271700    0.00000       Uiso       1.00
      H359          H  0.1391400  0.4314100  0.9540900    0.00000       Uiso       1.00
      H360          H  0.0910500  0.4635900  0.9400800    0.00000       Uiso       1.00
       N46          N  0.3093700  0.5829500  0.4878900    0.00000       Uiso       1.00
      C406          C  0.3213000  0.5612800  0.5077000    0.00000       Uiso       1.00
      C407          C  0.2804400  0.6030100  0.4942800    0.00000       Uiso       1.00
       B46          B  0.4366600  0.4841400  0.4733700    0.00000       Uiso       1.00
       O46          O  0.5064400  0.0552000  0.4558700    0.00000       Uiso       1.00
      C408          C  0.0359400  0.7255900  0.1248300    0.00000       Uiso       1.00
      H361          H  0.0579000  0.7294599  0.1093500    0.00000       Uiso       1.00
      H362          H  0.0406100  0.7035600  0.1399500    0.00000       Uiso       1.00
      H363          H  0.5036500  0.7715300  0.8152300    0.00000       Uiso       1.00
      C409          C  0.6495000  0.9577699  0.4987800    0.00000       Uiso       1.00
      C410          C  0.5940499  0.9949900  0.4825300    0.00000       Uiso       1.00
      C411          C  0.6391600  0.9832399  0.5191400    0.00000       Uiso       1.00
      C412          C  0.6117300  0.0017900  0.5110400    0.00000       Uiso       1.00
      C413          C  0.6317800  0.9509699  0.4702200    0.00000       Uiso       1.00
      C414          C  0.6042300  0.9693699  0.4622300    0.00000       Uiso       1.00
      H364          H  0.3096700  0.5566800  0.5309700    0.00000       Uiso       1.00
      H365          H  0.6524300  0.9888999  0.5412599    0.00000       Uiso       1.00
      H366          H  0.6044099  0.0213900  0.5271700    0.00000       Uiso       1.00
      H367          H  0.6391400  0.9314100  0.4540900    0.00000       Uiso       1.00
      H368          H  0.5910500  0.9635900  0.4400800    0.00000       Uiso       1.00
       N47          N  0.3093700  0.4170500  0.0121100    0.00000       Uiso       1.00
      C415          C  0.3213000  0.4387200  0.9923000    0.00000       Uiso       1.00
      C416          C  0.2804400  0.3969900  0.0057200    0.00000       Uiso       1.00
       B47          B  0.4366600  0.5158600  0.0266300    0.00000       Uiso       1.00
       O47          O  0.5064400  0.9448000  0.0441300    0.00000       Uiso       1.00
      C417          C  0.0359400  0.2744100  0.3751700    0.00000       Uiso       1.00
      H369          H  0.0579000  0.2705400  0.3906500    0.00000       Uiso       1.00
      H370          H  0.0406100  0.2964400  0.3600500    0.00000       Uiso       1.00
      H371          H  0.5036500  0.2284700  0.6847700    0.00000       Uiso       1.00
      C418          C  0.6495000  0.0422300  0.0012200    0.00000       Uiso       1.00
      C419          C  0.5940499  0.0050100  0.0174700    0.00000       Uiso       1.00
      C420          C  0.6391600  0.0167600  0.9808599    0.00000       Uiso       1.00
      C421          C  0.6117300  0.9982100  0.9889600    0.00000       Uiso       1.00
      C422          C  0.6317800  0.0490300  0.0297800    0.00000       Uiso       1.00
      C423          C  0.6042300  0.0306300  0.0377700    0.00000       Uiso       1.00
      H372          H  0.3096700  0.4433200  0.9690300    0.00000       Uiso       1.00
      H373          H  0.6524300  0.0111000  0.9587400    0.00000       Uiso       1.00
      H374          H  0.6044099  0.9786100  0.9728299    0.00000       Uiso       1.00
      H375          H  0.6391400  0.0685900  0.0459100    0.00000       Uiso       1.00
      H376          H  0.5910500  0.0364100  0.0599200    0.00000       Uiso       1.00
       N48          N  0.8093700  0.9170500  0.5121100    0.00000       Uiso       1.00
      C424          C  0.8212999  0.9387199  0.4923000    0.00000       Uiso       1.00
      C425          C  0.7804400  0.8969900  0.5057200    0.00000       Uiso       1.00
       B48          B  0.9366599  0.0158600  0.5266300    0.00000       Uiso       1.00
       O48          O  0.0064400  0.4448000  0.5441300    0.00000       Uiso       1.00
      C426          C  0.5359400  0.7744100  0.8751699    0.00000       Uiso       1.00
      H377          H  0.5579000  0.7705400  0.8906500    0.00000       Uiso       1.00
      H378          H  0.5406100  0.7964400  0.8600500    0.00000       Uiso       1.00
      H379          H  0.0036500  0.7284700  0.1847700    0.00000       Uiso       1.00
      C427          C  0.1495000  0.5422300  0.5012200    0.00000       Uiso       1.00
      C428          C  0.0940500  0.5050100  0.5174700    0.00000       Uiso       1.00
      C429          C  0.1391600  0.5167600  0.4808600    0.00000       Uiso       1.00
      C430          C  0.1117300  0.4982100  0.4889600    0.00000       Uiso       1.00
      C431          C  0.1317800  0.5490300  0.5297800    0.00000       Uiso       1.00
      C432          C  0.1042300  0.5306300  0.5377700    0.00000       Uiso       1.00
      H380          H  0.8096700  0.9433200  0.4690300    0.00000       Uiso       1.00
      H381          H  0.1524300  0.5111000  0.4587400    0.00000       Uiso       1.00
      H382          H  0.1044100  0.4786100  0.4728300    0.00000       Uiso       1.00
      H383          H  0.1391400  0.5685900  0.5459100    0.00000       Uiso       1.00
      H384          H  0.0910500  0.5364100  0.5599200    0.00000       Uiso       1.00
      C433          C  0.2500000  0.6687000  0.5000000    0.00000       Uiso       1.00
      C434          C  0.2500000  0.3313000  0.0000000    0.00000       Uiso       1.00
      C435          C  0.7500000  0.1687000  0.0000000    0.00000       Uiso       1.00
      C436          C  0.7500000  0.8313000  0.5000000    0.00000       Uiso       1.00
      C437          C  0.5000000  0.2500000  0.6687000    0.00000       Uiso       1.00
      C438          C  0.0000000  0.2500000  0.3313000    0.00000       Uiso       1.00
      C439          C  0.0000000  0.7500000  0.1687000    0.00000       Uiso       1.00
      C440          C  0.5000000  0.7500000  0.8313000    0.00000       Uiso       1.00
      C441          C  0.6687000  0.5000000  0.2500000    0.00000       Uiso       1.00
      C442          C  0.3313000  0.0000000  0.2500000    0.00000       Uiso       1.00
      C443          C  0.1687000  0.0000000  0.7500000    0.00000       Uiso       1.00
      C444          C  0.8313000  0.5000000  0.7500000    0.00000       Uiso       1.00
      C445          C  0.9187000  0.5000000  0.7500000    0.00000       Uiso       1.00
      C446          C  0.5813000  0.5000000  0.2500000    0.00000       Uiso       1.00
      C447          C  0.4187000  0.0000000  0.2500000    0.00000       Uiso       1.00
      C448          C  0.0813000  0.0000000  0.7500000    0.00000       Uiso       1.00
      C449          C  0.5000000  0.7500000  0.9187000    0.00000       Uiso       1.00
      C450          C  0.5000000  0.2500000  0.5813000    0.00000       Uiso       1.00
      C451          C  0.0000000  0.2500000  0.4187000    0.00000       Uiso       1.00
      C452          C  0.0000000  0.7500000  0.0813000    0.00000       Uiso       1.00
      C453          C  0.7500000  0.9187000  0.5000000    0.00000       Uiso       1.00
      C454          C  0.2500000  0.5813000  0.5000000    0.00000       Uiso       1.00
      C455          C  0.2500000  0.4187000  0.0000000    0.00000       Uiso       1.00
      C456          C  0.7500000  0.0813000  0.0000000    0.00000       Uiso       1.00
