data_DL-COF-2-ctn
_audit_creation_date              0000-00-00
_audit_creation_method            'LanYouShi'
_symmetry_space_group_name_H-M    'P1'
_cell_length_a                    41.0141983
_cell_length_b                    41.0141983
_cell_length_c                    41.0141983
_cell_angle_alpha                 90.0000000
_cell_angle_beta                  90.0000000
_cell_angle_gamma                 90.0000000
loop_
_atom_site_label
_atom_site_type_symbol
_atom_site_fract_x
_atom_site_fract_y
_atom_site_fract_z
_atom_site_U_iso_or_equiv
_atom_site_adp_type
_atom_site_occupancy
        N1          N  0.2616400  0.3329400  0.9405500    0.00000       Uiso       1.00
        C1          C  0.2416900  0.3113300  0.9287401    0.00000       Uiso       1.00
        C2          C  0.2554800  0.3530100  0.9695200    0.00000       Uiso       1.00
        B1          B  0.2756800  0.2342600  0.8130000    0.00000       Uiso       1.00
        O1          O  0.2941600  0.8043600  0.7440800    0.00000       Uiso       1.00
        C3          C  0.6251801  0.4753100  0.2142500    0.00000       Uiso       1.00
        H1          H  0.6406600  0.4790100  0.1922700    0.00000       Uiso       1.00
        H2          H  0.6100600  0.4532500  0.2097600    0.00000       Uiso       1.00
        H3          H  0.9347700  0.5215501  0.7465200    0.00000       Uiso       1.00
        C4          C  0.2503700  0.7077700  0.6005000    0.00000       Uiso       1.00
        C5          C  0.2661800  0.7451100  0.6560900    0.00000       Uiso       1.00
        C6          C  0.2296700  0.7328900  0.6109300    0.00000       Uiso       1.00
        C7          C  0.2374400  0.7515500  0.6384100    0.00000       Uiso       1.00
        C8          C  0.2790100  0.7013400  0.6181600    0.00000       Uiso       1.00
        C9          C  0.2867700  0.7197800  0.6457300    0.00000       Uiso       1.00
        H4          H  0.2184700  0.3068300  0.9405001    0.00000       Uiso       1.00
        H5          H  0.2074500  0.7382000  0.5976700    0.00000       Uiso       1.00
        F1          F  0.2167000  0.7756600  0.6475700    0.00000       Uiso       1.00
        H6          H  0.2954200  0.6820400  0.6107301    0.00000       Uiso       1.00
        H7          H  0.3090500  0.7142100  0.6587901    0.00000       Uiso       1.00
        N2          N  0.7616401  0.8329400  0.4405500    0.00000       Uiso       1.00
       C10          C  0.7416900  0.8113300  0.4287400    0.00000       Uiso       1.00
       C11          C  0.7554800  0.8530101  0.4695200    0.00000       Uiso       1.00
        B2          B  0.7756800  0.7342600  0.3130000    0.00000       Uiso       1.00
        O2          O  0.7941601  0.3043600  0.2440800    0.00000       Uiso       1.00
       C12          C  0.1251800  0.9753101  0.7142500    0.00000       Uiso       1.00
        H8          H  0.1406600  0.9790100  0.6922700    0.00000       Uiso       1.00
        H9          H  0.1100600  0.9532501  0.7097600    0.00000       Uiso       1.00
       H10          H  0.4347700  0.0215500  0.2465200    0.00000       Uiso       1.00
       C13          C  0.7503700  0.2077700  0.1005000    0.00000       Uiso       1.00
       C14          C  0.7661800  0.2451100  0.1560900    0.00000       Uiso       1.00
       C15          C  0.7296700  0.2328900  0.1109300    0.00000       Uiso       1.00
       C16          C  0.7374400  0.2515500  0.1384100    0.00000       Uiso       1.00
       C17          C  0.7790101  0.2013400  0.1181600    0.00000       Uiso       1.00
       C18          C  0.7867700  0.2197800  0.1457300    0.00000       Uiso       1.00
       H11          H  0.7184700  0.8068300  0.4405000    0.00000       Uiso       1.00
       H12          H  0.7074500  0.2382000  0.0976700    0.00000       Uiso       1.00
        F2          F  0.7167000  0.2756600  0.1475700    0.00000       Uiso       1.00
       H13          H  0.7954201  0.1820400  0.1107300    0.00000       Uiso       1.00
       H14          H  0.8090500  0.2142100  0.1587900    0.00000       Uiso       1.00
        N3          N  0.2383600  0.6670600  0.4405500    0.00000       Uiso       1.00
       C19          C  0.2583100  0.6886700  0.4287400    0.00000       Uiso       1.00
       C20          C  0.2445200  0.6469901  0.4695200    0.00000       Uiso       1.00
        B3          B  0.2243200  0.7657400  0.3130000    0.00000       Uiso       1.00
        O3          O  0.2058400  0.1956400  0.2440800    0.00000       Uiso       1.00
       C21          C  0.8748201  0.5246900  0.7142500    0.00000       Uiso       1.00
       H15          H  0.8593401  0.5209900  0.6922700    0.00000       Uiso       1.00
       H16          H  0.8899400  0.5467501  0.7097600    0.00000       Uiso       1.00
       H17          H  0.5652300  0.4784500  0.2465200    0.00000       Uiso       1.00
       C22          C  0.2496300  0.2922300  0.1005000    0.00000       Uiso       1.00
       C23          C  0.2338200  0.2548900  0.1560900    0.00000       Uiso       1.00
       C24          C  0.2703300  0.2671100  0.1109300    0.00000       Uiso       1.00
       C25          C  0.2625600  0.2484500  0.1384100    0.00000       Uiso       1.00
       C26          C  0.2209900  0.2986600  0.1181600    0.00000       Uiso       1.00
       C27          C  0.2132300  0.2802200  0.1457300    0.00000       Uiso       1.00
       H18          H  0.2815300  0.6931700  0.4405000    0.00000       Uiso       1.00
       H19          H  0.2925500  0.2618000  0.0976700    0.00000       Uiso       1.00
        F3          F  0.2833000  0.2243400  0.1475700    0.00000       Uiso       1.00
       H20          H  0.2045800  0.3179600  0.1107300    0.00000       Uiso       1.00
       H21          H  0.1909500  0.2857900  0.1587900    0.00000       Uiso       1.00
        N4          N  0.7383600  0.1670600  0.9405500    0.00000       Uiso       1.00
       C28          C  0.7583100  0.1886700  0.9287401    0.00000       Uiso       1.00
       C29          C  0.7445200  0.1469900  0.9695200    0.00000       Uiso       1.00
        B4          B  0.7243200  0.2657400  0.8130000    0.00000       Uiso       1.00
        O4          O  0.7058401  0.6956400  0.7440800    0.00000       Uiso       1.00
       C30          C  0.3748200  0.0246900  0.2142500    0.00000       Uiso       1.00
       H22          H  0.3593400  0.0209900  0.1922700    0.00000       Uiso       1.00
       H23          H  0.3899400  0.0467500  0.2097600    0.00000       Uiso       1.00
       H24          H  0.0652300  0.9784501  0.7465200    0.00000       Uiso       1.00
       C31          C  0.7496300  0.7922300  0.6005000    0.00000       Uiso       1.00
       C32          C  0.7338200  0.7548900  0.6560900    0.00000       Uiso       1.00
       C33          C  0.7703300  0.7671100  0.6109300    0.00000       Uiso       1.00
       C34          C  0.7625601  0.7484500  0.6384100    0.00000       Uiso       1.00
       C35          C  0.7209900  0.7986600  0.6181600    0.00000       Uiso       1.00
       C36          C  0.7132300  0.7802200  0.6457300    0.00000       Uiso       1.00
       H25          H  0.7815301  0.1931700  0.9405001    0.00000       Uiso       1.00
       H26          H  0.7925501  0.7618001  0.5976700    0.00000       Uiso       1.00
        F4          F  0.7833000  0.7243400  0.6475700    0.00000       Uiso       1.00
       H27          H  0.7045800  0.8179600  0.6107301    0.00000       Uiso       1.00
       H28          H  0.6909500  0.7857901  0.6587901    0.00000       Uiso       1.00
        N5          N  0.7383600  0.8329400  0.5594500    0.00000       Uiso       1.00
       C37          C  0.7583100  0.8113300  0.5712600    0.00000       Uiso       1.00
       C38          C  0.7445200  0.8530101  0.5304800    0.00000       Uiso       1.00
        B5          B  0.7243200  0.7342600  0.6870000    0.00000       Uiso       1.00
        O5          O  0.7058401  0.3043600  0.7559201    0.00000       Uiso       1.00
       C39          C  0.3748200  0.9753101  0.2857500    0.00000       Uiso       1.00
       H29          H  0.3593400  0.9790100  0.3077300    0.00000       Uiso       1.00
       H30          H  0.3899400  0.9532501  0.2902400    0.00000       Uiso       1.00
       H31          H  0.0652300  0.0215500  0.7534800    0.00000       Uiso       1.00
       C40          C  0.7496300  0.2077700  0.8995000    0.00000       Uiso       1.00
       C41          C  0.7338200  0.2451100  0.8439100    0.00000       Uiso       1.00
       C42          C  0.7703300  0.2328900  0.8890701    0.00000       Uiso       1.00
       C43          C  0.7625601  0.2515500  0.8615900    0.00000       Uiso       1.00
       C44          C  0.7209900  0.2013400  0.8818400    0.00000       Uiso       1.00
       C45          C  0.7132300  0.2197800  0.8542700    0.00000       Uiso       1.00
       H32          H  0.7815301  0.8068300  0.5595000    0.00000       Uiso       1.00
       H33          H  0.7925501  0.2382000  0.9023300    0.00000       Uiso       1.00
        F5          F  0.7833000  0.2756600  0.8524300    0.00000       Uiso       1.00
       H34          H  0.7045800  0.1820400  0.8892701    0.00000       Uiso       1.00
       H35          H  0.6909500  0.2142100  0.8412101    0.00000       Uiso       1.00
        N6          N  0.2383600  0.3329400  0.0594500    0.00000       Uiso       1.00
       C46          C  0.2583100  0.3113300  0.0712600    0.00000       Uiso       1.00
       C47          C  0.2445200  0.3530100  0.0304800    0.00000       Uiso       1.00
        B6          B  0.2243200  0.2342600  0.1870000    0.00000       Uiso       1.00
        O6          O  0.2058400  0.8043600  0.2559200    0.00000       Uiso       1.00
       C48          C  0.8748201  0.4753100  0.7857500    0.00000       Uiso       1.00
       H36          H  0.8593401  0.4790100  0.8077300    0.00000       Uiso       1.00
       H37          H  0.8899400  0.4532500  0.7902400    0.00000       Uiso       1.00
       H38          H  0.5652300  0.5215501  0.2534800    0.00000       Uiso       1.00
       C49          C  0.2496300  0.7077700  0.3995000    0.00000       Uiso       1.00
       C50          C  0.2338200  0.7451100  0.3439100    0.00000       Uiso       1.00
       C51          C  0.2703300  0.7328900  0.3890700    0.00000       Uiso       1.00
       C52          C  0.2625600  0.7515500  0.3615900    0.00000       Uiso       1.00
       C53          C  0.2209900  0.7013400  0.3818400    0.00000       Uiso       1.00
       C54          C  0.2132300  0.7197800  0.3542700    0.00000       Uiso       1.00
       H39          H  0.2815300  0.3068300  0.0595000    0.00000       Uiso       1.00
       H40          H  0.2925500  0.7382000  0.4023300    0.00000       Uiso       1.00
        F6          F  0.2833000  0.7756600  0.3524300    0.00000       Uiso       1.00
       H41          H  0.2045800  0.6820400  0.3892700    0.00000       Uiso       1.00
       H42          H  0.1909500  0.7142100  0.3412100    0.00000       Uiso       1.00
        N7          N  0.7616401  0.1670600  0.0594500    0.00000       Uiso       1.00
       C55          C  0.7416900  0.1886700  0.0712600    0.00000       Uiso       1.00
       C56          C  0.7554800  0.1469900  0.0304800    0.00000       Uiso       1.00
        B7          B  0.7756800  0.2657400  0.1870000    0.00000       Uiso       1.00
        O7          O  0.7941601  0.6956400  0.2559200    0.00000       Uiso       1.00
       C57          C  0.1251800  0.0246900  0.7857500    0.00000       Uiso       1.00
       H43          H  0.1406600  0.0209900  0.8077300    0.00000       Uiso       1.00
       H44          H  0.1100600  0.0467500  0.7902400    0.00000       Uiso       1.00
       H45          H  0.4347700  0.9784501  0.2534800    0.00000       Uiso       1.00
       C58          C  0.7503700  0.7922300  0.3995000    0.00000       Uiso       1.00
       C59          C  0.7661800  0.7548900  0.3439100    0.00000       Uiso       1.00
       C60          C  0.7296700  0.7671100  0.3890700    0.00000       Uiso       1.00
       C61          C  0.7374400  0.7484500  0.3615900    0.00000       Uiso       1.00
       C62          C  0.7790101  0.7986600  0.3818400    0.00000       Uiso       1.00
       C63          C  0.7867700  0.7802200  0.3542700    0.00000       Uiso       1.00
       H46          H  0.7184700  0.1931700  0.0595000    0.00000       Uiso       1.00
       H47          H  0.7074500  0.7618001  0.4023300    0.00000       Uiso       1.00
        F7          F  0.7167000  0.7243400  0.3524300    0.00000       Uiso       1.00
       H48          H  0.7954201  0.8179600  0.3892700    0.00000       Uiso       1.00
       H49          H  0.8090500  0.7857901  0.3412100    0.00000       Uiso       1.00
        N8          N  0.2616400  0.6670600  0.5594500    0.00000       Uiso       1.00
       C64          C  0.2416900  0.6886700  0.5712600    0.00000       Uiso       1.00
       C65          C  0.2554800  0.6469901  0.5304800    0.00000       Uiso       1.00
        B8          B  0.2756800  0.7657400  0.6870000    0.00000       Uiso       1.00
        O8          O  0.2941600  0.1956400  0.7559201    0.00000       Uiso       1.00
       C66          C  0.6251801  0.5246900  0.2857500    0.00000       Uiso       1.00
       H50          H  0.6406600  0.5209900  0.3077300    0.00000       Uiso       1.00
       H51          H  0.6100600  0.5467501  0.2902400    0.00000       Uiso       1.00
       H52          H  0.9347700  0.4784500  0.7534800    0.00000       Uiso       1.00
       C67          C  0.2503700  0.2922300  0.8995000    0.00000       Uiso       1.00
       C68          C  0.2661800  0.2548900  0.8439100    0.00000       Uiso       1.00
       C69          C  0.2296700  0.2671100  0.8890701    0.00000       Uiso       1.00
       C70          C  0.2374400  0.2484500  0.8615900    0.00000       Uiso       1.00
       C71          C  0.2790100  0.2986600  0.8818400    0.00000       Uiso       1.00
       C72          C  0.2867700  0.2802200  0.8542700    0.00000       Uiso       1.00
       H53          H  0.2184700  0.6931700  0.5595000    0.00000       Uiso       1.00
       H54          H  0.2074500  0.2618000  0.9023300    0.00000       Uiso       1.00
        F8          F  0.2167000  0.2243400  0.8524300    0.00000       Uiso       1.00
       H55          H  0.2954200  0.3179600  0.8892701    0.00000       Uiso       1.00
       H56          H  0.3090500  0.2857900  0.8412101    0.00000       Uiso       1.00
        N9          N  0.9405500  0.2616400  0.3329400    0.00000       Uiso       1.00
       C73          C  0.9287401  0.2416900  0.3113300    0.00000       Uiso       1.00
       C74          C  0.9695200  0.2554800  0.3530100    0.00000       Uiso       1.00
        B9          B  0.8130000  0.2756800  0.2342600    0.00000       Uiso       1.00
        O9          O  0.7440800  0.2941600  0.8043600    0.00000       Uiso       1.00
       C75          C  0.2142500  0.6251801  0.4753100    0.00000       Uiso       1.00
       H57          H  0.1922700  0.6406600  0.4790100    0.00000       Uiso       1.00
       H58          H  0.2097600  0.6100600  0.4532500    0.00000       Uiso       1.00
       H59          H  0.7465200  0.9347700  0.5215501    0.00000       Uiso       1.00
       C76          C  0.6005000  0.2503700  0.7077700    0.00000       Uiso       1.00
       C77          C  0.6560900  0.2661800  0.7451100    0.00000       Uiso       1.00
       C78          C  0.6109300  0.2296700  0.7328900    0.00000       Uiso       1.00
       C79          C  0.6384100  0.2374400  0.7515500    0.00000       Uiso       1.00
       C80          C  0.6181600  0.2790100  0.7013400    0.00000       Uiso       1.00
       C81          C  0.6457300  0.2867700  0.7197800    0.00000       Uiso       1.00
       H60          H  0.9405001  0.2184700  0.3068300    0.00000       Uiso       1.00
       H61          H  0.5976700  0.2074500  0.7382000    0.00000       Uiso       1.00
        F9          F  0.6475700  0.2167000  0.7756600    0.00000       Uiso       1.00
       H62          H  0.6107301  0.2954200  0.6820400    0.00000       Uiso       1.00
       H63          H  0.6587901  0.3090500  0.7142100    0.00000       Uiso       1.00
       N10          N  0.4405500  0.7616401  0.8329400    0.00000       Uiso       1.00
       C82          C  0.4287400  0.7416900  0.8113300    0.00000       Uiso       1.00
       C83          C  0.4695200  0.7554800  0.8530101    0.00000       Uiso       1.00
       B10          B  0.3130000  0.7756800  0.7342600    0.00000       Uiso       1.00
       O10          O  0.2440800  0.7941601  0.3043600    0.00000       Uiso       1.00
       C84          C  0.7142500  0.1251800  0.9753101    0.00000       Uiso       1.00
       H64          H  0.6922700  0.1406600  0.9790100    0.00000       Uiso       1.00
       H65          H  0.7097600  0.1100600  0.9532501    0.00000       Uiso       1.00
       H66          H  0.2465200  0.4347700  0.0215500    0.00000       Uiso       1.00
       C85          C  0.1005000  0.7503700  0.2077700    0.00000       Uiso       1.00
       C86          C  0.1560900  0.7661800  0.2451100    0.00000       Uiso       1.00
       C87          C  0.1109300  0.7296700  0.2328900    0.00000       Uiso       1.00
       C88          C  0.1384100  0.7374400  0.2515500    0.00000       Uiso       1.00
       C89          C  0.1181600  0.7790101  0.2013400    0.00000       Uiso       1.00
       C90          C  0.1457300  0.7867700  0.2197800    0.00000       Uiso       1.00
       H67          H  0.4405000  0.7184700  0.8068300    0.00000       Uiso       1.00
       H68          H  0.0976700  0.7074500  0.2382000    0.00000       Uiso       1.00
       F10          F  0.1475700  0.7167000  0.2756600    0.00000       Uiso       1.00
       H69          H  0.1107300  0.7954201  0.1820400    0.00000       Uiso       1.00
       H70          H  0.1587900  0.8090500  0.2142100    0.00000       Uiso       1.00
       N11          N  0.4405500  0.2383600  0.6670600    0.00000       Uiso       1.00
       C91          C  0.4287400  0.2583100  0.6886700    0.00000       Uiso       1.00
       C92          C  0.4695200  0.2445200  0.6469901    0.00000       Uiso       1.00
       B11          B  0.3130000  0.2243200  0.7657400    0.00000       Uiso       1.00
       O11          O  0.2440800  0.2058400  0.1956400    0.00000       Uiso       1.00
       C93          C  0.7142500  0.8748201  0.5246900    0.00000       Uiso       1.00
       H71          H  0.6922700  0.8593401  0.5209900    0.00000       Uiso       1.00
       H72          H  0.7097600  0.8899400  0.5467501    0.00000       Uiso       1.00
       H73          H  0.2465200  0.5652300  0.4784500    0.00000       Uiso       1.00
       C94          C  0.1005000  0.2496300  0.2922300    0.00000       Uiso       1.00
       C95          C  0.1560900  0.2338200  0.2548900    0.00000       Uiso       1.00
       C96          C  0.1109300  0.2703300  0.2671100    0.00000       Uiso       1.00
       C97          C  0.1384100  0.2625600  0.2484500    0.00000       Uiso       1.00
       C98          C  0.1181600  0.2209900  0.2986600    0.00000       Uiso       1.00
       C99          C  0.1457300  0.2132300  0.2802200    0.00000       Uiso       1.00
       H74          H  0.4405000  0.2815300  0.6931700    0.00000       Uiso       1.00
       H75          H  0.0976700  0.2925500  0.2618000    0.00000       Uiso       1.00
       F11          F  0.1475700  0.2833000  0.2243400    0.00000       Uiso       1.00
       H76          H  0.1107300  0.2045800  0.3179600    0.00000       Uiso       1.00
       H77          H  0.1587900  0.1909500  0.2857900    0.00000       Uiso       1.00
       N12          N  0.9405500  0.7383600  0.1670600    0.00000       Uiso       1.00
      C100          C  0.9287401  0.7583100  0.1886700    0.00000       Uiso       1.00
      C101          C  0.9695200  0.7445200  0.1469900    0.00000       Uiso       1.00
       B12          B  0.8130000  0.7243200  0.2657400    0.00000       Uiso       1.00
       O12          O  0.7440800  0.7058401  0.6956400    0.00000       Uiso       1.00
      C102          C  0.2142500  0.3748200  0.0246900    0.00000       Uiso       1.00
       H78          H  0.1922700  0.3593400  0.0209900    0.00000       Uiso       1.00
       H79          H  0.2097600  0.3899400  0.0467500    0.00000       Uiso       1.00
       H80          H  0.7465200  0.0652300  0.9784501    0.00000       Uiso       1.00
      C103          C  0.6005000  0.7496300  0.7922300    0.00000       Uiso       1.00
      C104          C  0.6560900  0.7338200  0.7548900    0.00000       Uiso       1.00
      C105          C  0.6109300  0.7703300  0.7671100    0.00000       Uiso       1.00
      C106          C  0.6384100  0.7625601  0.7484500    0.00000       Uiso       1.00
      C107          C  0.6181600  0.7209900  0.7986600    0.00000       Uiso       1.00
      C108          C  0.6457300  0.7132300  0.7802200    0.00000       Uiso       1.00
       H81          H  0.9405001  0.7815301  0.1931700    0.00000       Uiso       1.00
       H82          H  0.5976700  0.7925501  0.7618001    0.00000       Uiso       1.00
       F12          F  0.6475700  0.7833000  0.7243400    0.00000       Uiso       1.00
       H83          H  0.6107301  0.7045800  0.8179600    0.00000       Uiso       1.00
       H84          H  0.6587901  0.6909500  0.7857901    0.00000       Uiso       1.00
       N13          N  0.5594500  0.7383600  0.8329400    0.00000       Uiso       1.00
      C109          C  0.5712600  0.7583100  0.8113300    0.00000       Uiso       1.00
      C110          C  0.5304800  0.7445200  0.8530101    0.00000       Uiso       1.00
       B13          B  0.6870000  0.7243200  0.7342600    0.00000       Uiso       1.00
       O13          O  0.7559201  0.7058401  0.3043600    0.00000       Uiso       1.00
      C111          C  0.2857500  0.3748200  0.9753101    0.00000       Uiso       1.00
       H85          H  0.3077300  0.3593400  0.9790100    0.00000       Uiso       1.00
       H86          H  0.2902400  0.3899400  0.9532501    0.00000       Uiso       1.00
       H87          H  0.7534800  0.0652300  0.0215500    0.00000       Uiso       1.00
      C112          C  0.8995000  0.7496300  0.2077700    0.00000       Uiso       1.00
      C113          C  0.8439100  0.7338200  0.2451100    0.00000       Uiso       1.00
      C114          C  0.8890701  0.7703300  0.2328900    0.00000       Uiso       1.00
      C115          C  0.8615900  0.7625601  0.2515500    0.00000       Uiso       1.00
      C116          C  0.8818400  0.7209900  0.2013400    0.00000       Uiso       1.00
      C117          C  0.8542700  0.7132300  0.2197800    0.00000       Uiso       1.00
       H88          H  0.5595000  0.7815301  0.8068300    0.00000       Uiso       1.00
       H89          H  0.9023300  0.7925501  0.2382000    0.00000       Uiso       1.00
       F13          F  0.8524300  0.7833000  0.2756600    0.00000       Uiso       1.00
       H90          H  0.8892701  0.7045800  0.1820400    0.00000       Uiso       1.00
       H91          H  0.8412101  0.6909500  0.2142100    0.00000       Uiso       1.00
       N14          N  0.0594500  0.2383600  0.3329400    0.00000       Uiso       1.00
      C118          C  0.0712600  0.2583100  0.3113300    0.00000       Uiso       1.00
      C119          C  0.0304800  0.2445200  0.3530100    0.00000       Uiso       1.00
       B14          B  0.1870000  0.2243200  0.2342600    0.00000       Uiso       1.00
       O14          O  0.2559200  0.2058400  0.8043600    0.00000       Uiso       1.00
      C120          C  0.7857500  0.8748201  0.4753100    0.00000       Uiso       1.00
       H92          H  0.8077300  0.8593401  0.4790100    0.00000       Uiso       1.00
       H93          H  0.7902400  0.8899400  0.4532500    0.00000       Uiso       1.00
       H94          H  0.2534800  0.5652300  0.5215501    0.00000       Uiso       1.00
      C121          C  0.3995000  0.2496300  0.7077700    0.00000       Uiso       1.00
      C122          C  0.3439100  0.2338200  0.7451100    0.00000       Uiso       1.00
      C123          C  0.3890700  0.2703300  0.7328900    0.00000       Uiso       1.00
      C124          C  0.3615900  0.2625600  0.7515500    0.00000       Uiso       1.00
      C125          C  0.3818400  0.2209900  0.7013400    0.00000       Uiso       1.00
      C126          C  0.3542700  0.2132300  0.7197800    0.00000       Uiso       1.00
       H95          H  0.0595000  0.2815300  0.3068300    0.00000       Uiso       1.00
       H96          H  0.4023300  0.2925500  0.7382000    0.00000       Uiso       1.00
       F14          F  0.3524300  0.2833000  0.7756600    0.00000       Uiso       1.00
       H97          H  0.3892700  0.2045800  0.6820400    0.00000       Uiso       1.00
       H98          H  0.3412100  0.1909500  0.7142100    0.00000       Uiso       1.00
       N15          N  0.0594500  0.7616401  0.1670600    0.00000       Uiso       1.00
      C127          C  0.0712600  0.7416900  0.1886700    0.00000       Uiso       1.00
      C128          C  0.0304800  0.7554800  0.1469900    0.00000       Uiso       1.00
       B15          B  0.1870000  0.7756800  0.2657400    0.00000       Uiso       1.00
       O15          O  0.2559200  0.7941601  0.6956400    0.00000       Uiso       1.00
      C129          C  0.7857500  0.1251800  0.0246900    0.00000       Uiso       1.00
       H99          H  0.8077300  0.1406600  0.0209900    0.00000       Uiso       1.00
      H100          H  0.7902400  0.1100600  0.0467500    0.00000       Uiso       1.00
      H101          H  0.2534800  0.4347700  0.9784501    0.00000       Uiso       1.00
      C130          C  0.3995000  0.7503700  0.7922300    0.00000       Uiso       1.00
      C131          C  0.3439100  0.7661800  0.7548900    0.00000       Uiso       1.00
      C132          C  0.3890700  0.7296700  0.7671100    0.00000       Uiso       1.00
      C133          C  0.3615900  0.7374400  0.7484500    0.00000       Uiso       1.00
      C134          C  0.3818400  0.7790101  0.7986600    0.00000       Uiso       1.00
      C135          C  0.3542700  0.7867700  0.7802200    0.00000       Uiso       1.00
      H102          H  0.0595000  0.7184700  0.1931700    0.00000       Uiso       1.00
      H103          H  0.4023300  0.7074500  0.7618001    0.00000       Uiso       1.00
       F15          F  0.3524300  0.7167000  0.7243400    0.00000       Uiso       1.00
      H104          H  0.3892700  0.7954201  0.8179600    0.00000       Uiso       1.00
      H105          H  0.3412100  0.8090500  0.7857901    0.00000       Uiso       1.00
       N16          N  0.5594500  0.2616400  0.6670600    0.00000       Uiso       1.00
      C136          C  0.5712600  0.2416900  0.6886700    0.00000       Uiso       1.00
      C137          C  0.5304800  0.2554800  0.6469901    0.00000       Uiso       1.00
       B16          B  0.6870000  0.2756800  0.7657400    0.00000       Uiso       1.00
       O16          O  0.7559201  0.2941600  0.1956400    0.00000       Uiso       1.00
      C138          C  0.2857500  0.6251801  0.5246900    0.00000       Uiso       1.00
      H106          H  0.3077300  0.6406600  0.5209900    0.00000       Uiso       1.00
      H107          H  0.2902400  0.6100600  0.5467501    0.00000       Uiso       1.00
      H108          H  0.7534800  0.9347700  0.4784500    0.00000       Uiso       1.00
      C139          C  0.8995000  0.2503700  0.2922300    0.00000       Uiso       1.00
      C140          C  0.8439100  0.2661800  0.2548900    0.00000       Uiso       1.00
      C141          C  0.8890701  0.2296700  0.2671100    0.00000       Uiso       1.00
      C142          C  0.8615900  0.2374400  0.2484500    0.00000       Uiso       1.00
      C143          C  0.8818400  0.2790100  0.2986600    0.00000       Uiso       1.00
      C144          C  0.8542700  0.2867700  0.2802200    0.00000       Uiso       1.00
      H109          H  0.5595000  0.2184700  0.6931700    0.00000       Uiso       1.00
      H110          H  0.9023300  0.2074500  0.2618000    0.00000       Uiso       1.00
       F16          F  0.8524300  0.2167000  0.2243400    0.00000       Uiso       1.00
      H111          H  0.8892701  0.2954200  0.3179600    0.00000       Uiso       1.00
      H112          H  0.8412101  0.3090500  0.2857900    0.00000       Uiso       1.00
       N17          N  0.3329400  0.9405500  0.2616400    0.00000       Uiso       1.00
      C145          C  0.3113300  0.9287401  0.2416900    0.00000       Uiso       1.00
      C146          C  0.3530100  0.9695200  0.2554800    0.00000       Uiso       1.00
       B17          B  0.2342600  0.8130000  0.2756800    0.00000       Uiso       1.00
       O17          O  0.8043600  0.7440800  0.2941600    0.00000       Uiso       1.00
      C147          C  0.4753100  0.2142500  0.6251801    0.00000       Uiso       1.00
      H113          H  0.4790100  0.1922700  0.6406600    0.00000       Uiso       1.00
      H114          H  0.4532500  0.2097600  0.6100600    0.00000       Uiso       1.00
      H115          H  0.5215501  0.7465200  0.9347700    0.00000       Uiso       1.00
      C148          C  0.7077700  0.6005000  0.2503700    0.00000       Uiso       1.00
      C149          C  0.7451100  0.6560900  0.2661800    0.00000       Uiso       1.00
      C150          C  0.7328900  0.6109300  0.2296700    0.00000       Uiso       1.00
      C151          C  0.7515500  0.6384100  0.2374400    0.00000       Uiso       1.00
      C152          C  0.7013400  0.6181600  0.2790100    0.00000       Uiso       1.00
      C153          C  0.7197800  0.6457300  0.2867700    0.00000       Uiso       1.00
      H116          H  0.3068300  0.9405001  0.2184700    0.00000       Uiso       1.00
      H117          H  0.7382000  0.5976700  0.2074500    0.00000       Uiso       1.00
       F17          F  0.7756600  0.6475700  0.2167000    0.00000       Uiso       1.00
      H118          H  0.6820400  0.6107301  0.2954200    0.00000       Uiso       1.00
      H119          H  0.7142100  0.6587901  0.3090500    0.00000       Uiso       1.00
       N18          N  0.8329400  0.4405500  0.7616401    0.00000       Uiso       1.00
      C154          C  0.8113300  0.4287400  0.7416900    0.00000       Uiso       1.00
      C155          C  0.8530101  0.4695200  0.7554800    0.00000       Uiso       1.00
       B18          B  0.7342600  0.3130000  0.7756800    0.00000       Uiso       1.00
       O18          O  0.3043600  0.2440800  0.7941601    0.00000       Uiso       1.00
      C156          C  0.9753101  0.7142500  0.1251800    0.00000       Uiso       1.00
      H120          H  0.9790100  0.6922700  0.1406600    0.00000       Uiso       1.00
      H121          H  0.9532501  0.7097600  0.1100600    0.00000       Uiso       1.00
      H122          H  0.0215500  0.2465200  0.4347700    0.00000       Uiso       1.00
      C157          C  0.2077700  0.1005000  0.7503700    0.00000       Uiso       1.00
      C158          C  0.2451100  0.1560900  0.7661800    0.00000       Uiso       1.00
      C159          C  0.2328900  0.1109300  0.7296700    0.00000       Uiso       1.00
      C160          C  0.2515500  0.1384100  0.7374400    0.00000       Uiso       1.00
      C161          C  0.2013400  0.1181600  0.7790101    0.00000       Uiso       1.00
      C162          C  0.2197800  0.1457300  0.7867700    0.00000       Uiso       1.00
      H123          H  0.8068300  0.4405000  0.7184700    0.00000       Uiso       1.00
      H124          H  0.2382000  0.0976700  0.7074500    0.00000       Uiso       1.00
       F18          F  0.2756600  0.1475700  0.7167000    0.00000       Uiso       1.00
      H125          H  0.1820400  0.1107300  0.7954201    0.00000       Uiso       1.00
      H126          H  0.2142100  0.1587900  0.8090500    0.00000       Uiso       1.00
       N19          N  0.6670600  0.4405500  0.2383600    0.00000       Uiso       1.00
      C163          C  0.6886700  0.4287400  0.2583100    0.00000       Uiso       1.00
      C164          C  0.6469901  0.4695200  0.2445200    0.00000       Uiso       1.00
       B19          B  0.7657400  0.3130000  0.2243200    0.00000       Uiso       1.00
       O19          O  0.1956400  0.2440800  0.2058400    0.00000       Uiso       1.00
      C165          C  0.5246900  0.7142500  0.8748201    0.00000       Uiso       1.00
      H127          H  0.5209900  0.6922700  0.8593401    0.00000       Uiso       1.00
      H128          H  0.5467501  0.7097600  0.8899400    0.00000       Uiso       1.00
      H129          H  0.4784500  0.2465200  0.5652300    0.00000       Uiso       1.00
      C166          C  0.2922300  0.1005000  0.2496300    0.00000       Uiso       1.00
      C167          C  0.2548900  0.1560900  0.2338200    0.00000       Uiso       1.00
      C168          C  0.2671100  0.1109300  0.2703300    0.00000       Uiso       1.00
      C169          C  0.2484500  0.1384100  0.2625600    0.00000       Uiso       1.00
      C170          C  0.2986600  0.1181600  0.2209900    0.00000       Uiso       1.00
      C171          C  0.2802200  0.1457300  0.2132300    0.00000       Uiso       1.00
      H130          H  0.6931700  0.4405000  0.2815300    0.00000       Uiso       1.00
      H131          H  0.2618000  0.0976700  0.2925500    0.00000       Uiso       1.00
       F19          F  0.2243400  0.1475700  0.2833000    0.00000       Uiso       1.00
      H132          H  0.3179600  0.1107300  0.2045800    0.00000       Uiso       1.00
      H133          H  0.2857900  0.1587900  0.1909500    0.00000       Uiso       1.00
       N20          N  0.1670600  0.9405500  0.7383600    0.00000       Uiso       1.00
      C172          C  0.1886700  0.9287401  0.7583100    0.00000       Uiso       1.00
      C173          C  0.1469900  0.9695200  0.7445200    0.00000       Uiso       1.00
       B20          B  0.2657400  0.8130000  0.7243200    0.00000       Uiso       1.00
       O20          O  0.6956400  0.7440800  0.7058401    0.00000       Uiso       1.00
      C174          C  0.0246900  0.2142500  0.3748200    0.00000       Uiso       1.00
      H134          H  0.0209900  0.1922700  0.3593400    0.00000       Uiso       1.00
      H135          H  0.0467500  0.2097600  0.3899400    0.00000       Uiso       1.00
      H136          H  0.9784501  0.7465200  0.0652300    0.00000       Uiso       1.00
      C175          C  0.7922300  0.6005000  0.7496300    0.00000       Uiso       1.00
      C176          C  0.7548900  0.6560900  0.7338200    0.00000       Uiso       1.00
      C177          C  0.7671100  0.6109300  0.7703300    0.00000       Uiso       1.00
      C178          C  0.7484500  0.6384100  0.7625601    0.00000       Uiso       1.00
      C179          C  0.7986600  0.6181600  0.7209900    0.00000       Uiso       1.00
      C180          C  0.7802200  0.6457300  0.7132300    0.00000       Uiso       1.00
      H137          H  0.1931700  0.9405001  0.7815301    0.00000       Uiso       1.00
      H138          H  0.7618001  0.5976700  0.7925501    0.00000       Uiso       1.00
       F20          F  0.7243400  0.6475700  0.7833000    0.00000       Uiso       1.00
      H139          H  0.8179600  0.6107301  0.7045800    0.00000       Uiso       1.00
      H140          H  0.7857901  0.6587901  0.6909500    0.00000       Uiso       1.00
       N21          N  0.8329400  0.5594500  0.7383600    0.00000       Uiso       1.00
      C181          C  0.8113300  0.5712600  0.7583100    0.00000       Uiso       1.00
      C182          C  0.8530101  0.5304800  0.7445200    0.00000       Uiso       1.00
       B21          B  0.7342600  0.6870000  0.7243200    0.00000       Uiso       1.00
       O21          O  0.3043600  0.7559201  0.7058401    0.00000       Uiso       1.00
      C183          C  0.9753101  0.2857500  0.3748200    0.00000       Uiso       1.00
      H141          H  0.9790100  0.3077300  0.3593400    0.00000       Uiso       1.00
      H142          H  0.9532501  0.2902400  0.3899400    0.00000       Uiso       1.00
      H143          H  0.0215500  0.7534800  0.0652300    0.00000       Uiso       1.00
      C184          C  0.2077700  0.8995000  0.7496300    0.00000       Uiso       1.00
      C185          C  0.2451100  0.8439100  0.7338200    0.00000       Uiso       1.00
      C186          C  0.2328900  0.8890701  0.7703300    0.00000       Uiso       1.00
      C187          C  0.2515500  0.8615900  0.7625601    0.00000       Uiso       1.00
      C188          C  0.2013400  0.8818400  0.7209900    0.00000       Uiso       1.00
      C189          C  0.2197800  0.8542700  0.7132300    0.00000       Uiso       1.00
      H144          H  0.8068300  0.5595000  0.7815301    0.00000       Uiso       1.00
      H145          H  0.2382000  0.9023300  0.7925501    0.00000       Uiso       1.00
       F21          F  0.2756600  0.8524300  0.7833000    0.00000       Uiso       1.00
      H146          H  0.1820400  0.8892701  0.7045800    0.00000       Uiso       1.00
      H147          H  0.2142100  0.8412101  0.6909500    0.00000       Uiso       1.00
       N22          N  0.3329400  0.0594500  0.2383600    0.00000       Uiso       1.00
      C190          C  0.3113300  0.0712600  0.2583100    0.00000       Uiso       1.00
      C191          C  0.3530100  0.0304800  0.2445200    0.00000       Uiso       1.00
       B22          B  0.2342600  0.1870000  0.2243200    0.00000       Uiso       1.00
       O22          O  0.8043600  0.2559200  0.2058400    0.00000       Uiso       1.00
      C192          C  0.4753100  0.7857500  0.8748201    0.00000       Uiso       1.00
      H148          H  0.4790100  0.8077300  0.8593401    0.00000       Uiso       1.00
      H149          H  0.4532500  0.7902400  0.8899400    0.00000       Uiso       1.00
      H150          H  0.5215501  0.2534800  0.5652300    0.00000       Uiso       1.00
      C193          C  0.7077700  0.3995000  0.2496300    0.00000       Uiso       1.00
      C194          C  0.7451100  0.3439100  0.2338200    0.00000       Uiso       1.00
      C195          C  0.7328900  0.3890700  0.2703300    0.00000       Uiso       1.00
      C196          C  0.7515500  0.3615900  0.2625600    0.00000       Uiso       1.00
      C197          C  0.7013400  0.3818400  0.2209900    0.00000       Uiso       1.00
      C198          C  0.7197800  0.3542700  0.2132300    0.00000       Uiso       1.00
      H151          H  0.3068300  0.0595000  0.2815300    0.00000       Uiso       1.00
      H152          H  0.7382000  0.4023300  0.2925500    0.00000       Uiso       1.00
       F22          F  0.7756600  0.3524300  0.2833000    0.00000       Uiso       1.00
      H153          H  0.6820400  0.3892700  0.2045800    0.00000       Uiso       1.00
      H154          H  0.7142100  0.3412100  0.1909500    0.00000       Uiso       1.00
       N23          N  0.1670600  0.0594500  0.7616401    0.00000       Uiso       1.00
      C199          C  0.1886700  0.0712600  0.7416900    0.00000       Uiso       1.00
      C200          C  0.1469900  0.0304800  0.7554800    0.00000       Uiso       1.00
       B23          B  0.2657400  0.1870000  0.7756800    0.00000       Uiso       1.00
       O23          O  0.6956400  0.2559200  0.7941601    0.00000       Uiso       1.00
      C201          C  0.0246900  0.7857500  0.1251800    0.00000       Uiso       1.00
      H155          H  0.0209900  0.8077300  0.1406600    0.00000       Uiso       1.00
      H156          H  0.0467500  0.7902400  0.1100600    0.00000       Uiso       1.00
      H157          H  0.9784501  0.2534800  0.4347700    0.00000       Uiso       1.00
      C202          C  0.7922300  0.3995000  0.7503700    0.00000       Uiso       1.00
      C203          C  0.7548900  0.3439100  0.7661800    0.00000       Uiso       1.00
      C204          C  0.7671100  0.3890700  0.7296700    0.00000       Uiso       1.00
      C205          C  0.7484500  0.3615900  0.7374400    0.00000       Uiso       1.00
      C206          C  0.7986600  0.3818400  0.7790101    0.00000       Uiso       1.00
      C207          C  0.7802200  0.3542700  0.7867700    0.00000       Uiso       1.00
      H158          H  0.1931700  0.0595000  0.7184700    0.00000       Uiso       1.00
      H159          H  0.7618001  0.4023300  0.7074500    0.00000       Uiso       1.00
       F23          F  0.7243400  0.3524300  0.7167000    0.00000       Uiso       1.00
      H160          H  0.8179600  0.3892700  0.7954201    0.00000       Uiso       1.00
      H161          H  0.7857901  0.3412100  0.8090500    0.00000       Uiso       1.00
       N24          N  0.6670600  0.5594500  0.2616400    0.00000       Uiso       1.00
      C208          C  0.6886700  0.5712600  0.2416900    0.00000       Uiso       1.00
      C209          C  0.6469901  0.5304800  0.2554800    0.00000       Uiso       1.00
       B24          B  0.7657400  0.6870000  0.2756800    0.00000       Uiso       1.00
       O24          O  0.1956400  0.7559201  0.2941600    0.00000       Uiso       1.00
      C210          C  0.5246900  0.2857500  0.6251801    0.00000       Uiso       1.00
      H162          H  0.5209900  0.3077300  0.6406600    0.00000       Uiso       1.00
      H163          H  0.5467501  0.2902400  0.6100600    0.00000       Uiso       1.00
      H164          H  0.4784500  0.7534800  0.9347700    0.00000       Uiso       1.00
      C211          C  0.2922300  0.8995000  0.2503700    0.00000       Uiso       1.00
      C212          C  0.2548900  0.8439100  0.2661800    0.00000       Uiso       1.00
      C213          C  0.2671100  0.8890701  0.2296700    0.00000       Uiso       1.00
      C214          C  0.2484500  0.8615900  0.2374400    0.00000       Uiso       1.00
      C215          C  0.2986600  0.8818400  0.2790100    0.00000       Uiso       1.00
      C216          C  0.2802200  0.8542700  0.2867700    0.00000       Uiso       1.00
      H165          H  0.6931700  0.5595000  0.2184700    0.00000       Uiso       1.00
      H166          H  0.2618000  0.9023300  0.2074500    0.00000       Uiso       1.00
       F24          F  0.2243400  0.8524300  0.2167000    0.00000       Uiso       1.00
      H167          H  0.3179600  0.8892701  0.2954200    0.00000       Uiso       1.00
      H168          H  0.2857900  0.8412101  0.3090500    0.00000       Uiso       1.00
       N25          N  0.5829400  0.5116400  0.1905500    0.00000       Uiso       1.00
      C217          C  0.5613300  0.4916900  0.1787400    0.00000       Uiso       1.00
      C218          C  0.6030101  0.5054800  0.2195200    0.00000       Uiso       1.00
       B25          B  0.4842600  0.5256800  0.0630000    0.00000       Uiso       1.00
       O25          O  0.0543600  0.5441600  0.9940801    0.00000       Uiso       1.00
      C219          C  0.7253100  0.8751800  0.4642500    0.00000       Uiso       1.00
      H169          H  0.7290100  0.8906600  0.4422700    0.00000       Uiso       1.00
      H170          H  0.7032501  0.8600600  0.4597600    0.00000       Uiso       1.00
      H171          H  0.7715501  0.1847700  0.9965200    0.00000       Uiso       1.00
      C220          C  0.9577700  0.5003700  0.8505000    0.00000       Uiso       1.00
      C221          C  0.9951100  0.5161800  0.9060900    0.00000       Uiso       1.00
      C222          C  0.9828900  0.4796700  0.8609301    0.00000       Uiso       1.00
      C223          C  0.0015500  0.4874400  0.8884100    0.00000       Uiso       1.00
      C224          C  0.9513400  0.5290101  0.8681600    0.00000       Uiso       1.00
      C225          C  0.9697800  0.5367700  0.8957300    0.00000       Uiso       1.00
      H172          H  0.5568300  0.4684700  0.1905000    0.00000       Uiso       1.00
      H173          H  0.9882000  0.4574500  0.8476700    0.00000       Uiso       1.00
       F25          F  0.0256600  0.4667000  0.8975700    0.00000       Uiso       1.00
      H174          H  0.9320400  0.5454200  0.8607300    0.00000       Uiso       1.00
      H175          H  0.9642101  0.5590500  0.9087901    0.00000       Uiso       1.00
       N26          N  0.0829400  0.0116400  0.6905500    0.00000       Uiso       1.00
      C226          C  0.0613300  0.9916900  0.6787400    0.00000       Uiso       1.00
      C227          C  0.1030100  0.0054800  0.7195200    0.00000       Uiso       1.00
       B26          B  0.9842601  0.0256800  0.5630000    0.00000       Uiso       1.00
       O26          O  0.5543600  0.0441600  0.4940800    0.00000       Uiso       1.00
      C228          C  0.2253100  0.3751800  0.9642501    0.00000       Uiso       1.00
      H176          H  0.2290100  0.3906600  0.9422700    0.00000       Uiso       1.00
      H177          H  0.2032500  0.3600600  0.9597600    0.00000       Uiso       1.00
      H178          H  0.2715500  0.6847700  0.4965200    0.00000       Uiso       1.00
      C229          C  0.4577700  0.0003700  0.3505000    0.00000       Uiso       1.00
      C230          C  0.4951100  0.0161800  0.4060900    0.00000       Uiso       1.00
      C231          C  0.4828900  0.9796700  0.3609300    0.00000       Uiso       1.00
      C232          C  0.5015500  0.9874400  0.3884100    0.00000       Uiso       1.00
      C233          C  0.4513400  0.0290100  0.3681600    0.00000       Uiso       1.00
      C234          C  0.4697800  0.0367700  0.3957300    0.00000       Uiso       1.00
      H179          H  0.0568300  0.9684701  0.6905000    0.00000       Uiso       1.00
      H180          H  0.4882000  0.9574501  0.3476700    0.00000       Uiso       1.00
       F26          F  0.5256600  0.9667000  0.3975700    0.00000       Uiso       1.00
      H181          H  0.4320400  0.0454200  0.3607300    0.00000       Uiso       1.00
      H182          H  0.4642100  0.0590500  0.4087900    0.00000       Uiso       1.00
       N27          N  0.9170601  0.4883600  0.6905500    0.00000       Uiso       1.00
      C235          C  0.9386700  0.5083100  0.6787400    0.00000       Uiso       1.00
      C236          C  0.8969900  0.4945200  0.7195200    0.00000       Uiso       1.00
       B27          B  0.0157400  0.4743200  0.5630000    0.00000       Uiso       1.00
       O27          O  0.4456400  0.4558400  0.4940800    0.00000       Uiso       1.00
      C237          C  0.7746900  0.1248200  0.9642501    0.00000       Uiso       1.00
      H183          H  0.7709900  0.1093400  0.9422700    0.00000       Uiso       1.00
      H184          H  0.7967500  0.1399400  0.9597600    0.00000       Uiso       1.00
      H185          H  0.7284501  0.8152300  0.4965200    0.00000       Uiso       1.00
      C238          C  0.5422300  0.4996300  0.3505000    0.00000       Uiso       1.00
      C239          C  0.5048900  0.4838200  0.4060900    0.00000       Uiso       1.00
      C240          C  0.5171100  0.5203300  0.3609300    0.00000       Uiso       1.00
      C241          C  0.4984500  0.5125600  0.3884100    0.00000       Uiso       1.00
      C242          C  0.5486600  0.4709900  0.3681600    0.00000       Uiso       1.00
      C243          C  0.5302200  0.4632300  0.3957300    0.00000       Uiso       1.00
      H186          H  0.9431701  0.5315300  0.6905000    0.00000       Uiso       1.00
      H187          H  0.5118001  0.5425500  0.3476700    0.00000       Uiso       1.00
       F27          F  0.4743400  0.5333000  0.3975700    0.00000       Uiso       1.00
      H188          H  0.5679600  0.4545800  0.3607300    0.00000       Uiso       1.00
      H189          H  0.5357900  0.4409500  0.4087900    0.00000       Uiso       1.00
       N28          N  0.4170600  0.9883601  0.1905500    0.00000       Uiso       1.00
      C244          C  0.4386700  0.0083100  0.1787400    0.00000       Uiso       1.00
      C245          C  0.3969900  0.9945201  0.2195200    0.00000       Uiso       1.00
       B28          B  0.5157400  0.9743201  0.0630000    0.00000       Uiso       1.00
       O28          O  0.9456400  0.9558401  0.9940801    0.00000       Uiso       1.00
      C246          C  0.2746900  0.6248200  0.4642500    0.00000       Uiso       1.00
      H190          H  0.2709900  0.6093400  0.4422700    0.00000       Uiso       1.00
      H191          H  0.2967500  0.6399400  0.4597600    0.00000       Uiso       1.00
      H192          H  0.2284500  0.3152300  0.9965200    0.00000       Uiso       1.00
      C247          C  0.0422300  0.9996300  0.8505000    0.00000       Uiso       1.00
      C248          C  0.0048900  0.9838200  0.9060900    0.00000       Uiso       1.00
      C249          C  0.0171100  0.0203300  0.8609301    0.00000       Uiso       1.00
      C250          C  0.9984500  0.0125600  0.8884100    0.00000       Uiso       1.00
      C251          C  0.0486600  0.9709901  0.8681600    0.00000       Uiso       1.00
      C252          C  0.0302200  0.9632300  0.8957300    0.00000       Uiso       1.00
      H193          H  0.4431700  0.0315300  0.1905000    0.00000       Uiso       1.00
      H194          H  0.0118000  0.0425500  0.8476700    0.00000       Uiso       1.00
       F28          F  0.9743401  0.0333000  0.8975700    0.00000       Uiso       1.00
      H195          H  0.0679600  0.9545801  0.8607300    0.00000       Uiso       1.00
      H196          H  0.0357900  0.9409500  0.9087901    0.00000       Uiso       1.00
       N29          N  0.0829400  0.9883601  0.8094500    0.00000       Uiso       1.00
      C253          C  0.0613300  0.0083100  0.8212600    0.00000       Uiso       1.00
      C254          C  0.1030100  0.9945201  0.7804800    0.00000       Uiso       1.00
       B29          B  0.9842601  0.9743201  0.9370000    0.00000       Uiso       1.00
       O29          O  0.5543600  0.9558401  0.0059200    0.00000       Uiso       1.00
      C255          C  0.2253100  0.6248200  0.5357500    0.00000       Uiso       1.00
      H197          H  0.2290100  0.6093400  0.5577300    0.00000       Uiso       1.00
      H198          H  0.2032500  0.6399400  0.5402400    0.00000       Uiso       1.00
      H199          H  0.2715500  0.3152300  0.0034800    0.00000       Uiso       1.00
      C256          C  0.4577700  0.9996300  0.1495000    0.00000       Uiso       1.00
      C257          C  0.4951100  0.9838200  0.0939100    0.00000       Uiso       1.00
      C258          C  0.4828900  0.0203300  0.1390700    0.00000       Uiso       1.00
      C259          C  0.5015500  0.0125600  0.1115900    0.00000       Uiso       1.00
      C260          C  0.4513400  0.9709901  0.1318400    0.00000       Uiso       1.00
      C261          C  0.4697800  0.9632300  0.1042700    0.00000       Uiso       1.00
      H200          H  0.0568300  0.0315300  0.8095001    0.00000       Uiso       1.00
      H201          H  0.4882000  0.0425500  0.1523300    0.00000       Uiso       1.00
       F29          F  0.5256600  0.0333000  0.1024300    0.00000       Uiso       1.00
      H202          H  0.4320400  0.9545801  0.1392700    0.00000       Uiso       1.00
      H203          H  0.4642100  0.9409500  0.0912100    0.00000       Uiso       1.00
       N30          N  0.5829400  0.4883600  0.3094500    0.00000       Uiso       1.00
      C262          C  0.5613300  0.5083100  0.3212600    0.00000       Uiso       1.00
      C263          C  0.6030101  0.4945200  0.2804800    0.00000       Uiso       1.00
       B30          B  0.4842600  0.4743200  0.4370000    0.00000       Uiso       1.00
       O30          O  0.0543600  0.4558400  0.5059201    0.00000       Uiso       1.00
      C264          C  0.7253100  0.1248200  0.0357500    0.00000       Uiso       1.00
      H204          H  0.7290100  0.1093400  0.0577300    0.00000       Uiso       1.00
      H205          H  0.7032501  0.1399400  0.0402400    0.00000       Uiso       1.00
      H206          H  0.7715501  0.8152300  0.5034800    0.00000       Uiso       1.00
      C265          C  0.9577700  0.4996300  0.6495000    0.00000       Uiso       1.00
      C266          C  0.9951100  0.4838200  0.5939100    0.00000       Uiso       1.00
      C267          C  0.9828900  0.5203300  0.6390700    0.00000       Uiso       1.00
      C268          C  0.0015500  0.5125600  0.6115900    0.00000       Uiso       1.00
      C269          C  0.9513400  0.4709900  0.6318400    0.00000       Uiso       1.00
      C270          C  0.9697800  0.4632300  0.6042700    0.00000       Uiso       1.00
      H207          H  0.5568300  0.5315300  0.3095000    0.00000       Uiso       1.00
      H208          H  0.9882000  0.5425500  0.6523300    0.00000       Uiso       1.00
       F30          F  0.0256600  0.5333000  0.6024300    0.00000       Uiso       1.00
      H209          H  0.9320400  0.4545800  0.6392700    0.00000       Uiso       1.00
      H210          H  0.9642101  0.4409500  0.5912100    0.00000       Uiso       1.00
       N31          N  0.4170600  0.0116400  0.3094500    0.00000       Uiso       1.00
      C271          C  0.4386700  0.9916900  0.3212600    0.00000       Uiso       1.00
      C272          C  0.3969900  0.0054800  0.2804800    0.00000       Uiso       1.00
       B31          B  0.5157400  0.0256800  0.4370000    0.00000       Uiso       1.00
       O31          O  0.9456400  0.0441600  0.5059201    0.00000       Uiso       1.00
      C273          C  0.2746900  0.3751800  0.0357500    0.00000       Uiso       1.00
      H211          H  0.2709900  0.3906600  0.0577300    0.00000       Uiso       1.00
      H212          H  0.2967500  0.3600600  0.0402400    0.00000       Uiso       1.00
      H213          H  0.2284500  0.6847700  0.5034800    0.00000       Uiso       1.00
      C274          C  0.0422300  0.0003700  0.6495000    0.00000       Uiso       1.00
      C275          C  0.0048900  0.0161800  0.5939100    0.00000       Uiso       1.00
      C276          C  0.0171100  0.9796700  0.6390700    0.00000       Uiso       1.00
      C277          C  0.9984500  0.9874400  0.6115900    0.00000       Uiso       1.00
      C278          C  0.0486600  0.0290100  0.6318400    0.00000       Uiso       1.00
      C279          C  0.0302200  0.0367700  0.6042700    0.00000       Uiso       1.00
      H214          H  0.4431700  0.9684701  0.3095000    0.00000       Uiso       1.00
      H215          H  0.0118000  0.9574501  0.6523300    0.00000       Uiso       1.00
       F31          F  0.9743401  0.9667000  0.6024300    0.00000       Uiso       1.00
      H216          H  0.0679600  0.0454200  0.6392700    0.00000       Uiso       1.00
      H217          H  0.0357900  0.0590500  0.5912100    0.00000       Uiso       1.00
       N32          N  0.9170601  0.5116400  0.8094500    0.00000       Uiso       1.00
      C280          C  0.9386700  0.4916900  0.8212600    0.00000       Uiso       1.00
      C281          C  0.8969900  0.5054800  0.7804800    0.00000       Uiso       1.00
       B32          B  0.0157400  0.5256800  0.9370000    0.00000       Uiso       1.00
       O32          O  0.4456400  0.5441600  0.0059200    0.00000       Uiso       1.00
      C282          C  0.7746900  0.8751800  0.5357500    0.00000       Uiso       1.00
      H218          H  0.7709900  0.8906600  0.5577300    0.00000       Uiso       1.00
      H219          H  0.7967500  0.8600600  0.5402400    0.00000       Uiso       1.00
      H220          H  0.7284501  0.1847700  0.0034800    0.00000       Uiso       1.00
      C283          C  0.5422300  0.5003700  0.1495000    0.00000       Uiso       1.00
      C284          C  0.5048900  0.5161800  0.0939100    0.00000       Uiso       1.00
      C285          C  0.5171100  0.4796700  0.1390700    0.00000       Uiso       1.00
      C286          C  0.4984500  0.4874400  0.1115900    0.00000       Uiso       1.00
      C287          C  0.5486600  0.5290101  0.1318400    0.00000       Uiso       1.00
      C288          C  0.5302200  0.5367700  0.1042700    0.00000       Uiso       1.00
      H221          H  0.9431701  0.4684700  0.8095001    0.00000       Uiso       1.00
      H222          H  0.5118001  0.4574500  0.1523300    0.00000       Uiso       1.00
       F32          F  0.4743400  0.4667000  0.1024300    0.00000       Uiso       1.00
      H223          H  0.5679600  0.5454200  0.1392700    0.00000       Uiso       1.00
      H224          H  0.5357900  0.5590500  0.0912100    0.00000       Uiso       1.00
       N33          N  0.5116400  0.1905500  0.5829400    0.00000       Uiso       1.00
      C289          C  0.4916900  0.1787400  0.5613300    0.00000       Uiso       1.00
      C290          C  0.5054800  0.2195200  0.6030101    0.00000       Uiso       1.00
       B33          B  0.5256800  0.0630000  0.4842600    0.00000       Uiso       1.00
       O33          O  0.5441600  0.9940801  0.0543600    0.00000       Uiso       1.00
      C291          C  0.8751800  0.4642500  0.7253100    0.00000       Uiso       1.00
      H225          H  0.8906600  0.4422700  0.7290100    0.00000       Uiso       1.00
      H226          H  0.8600600  0.4597600  0.7032501    0.00000       Uiso       1.00
      H227          H  0.1847700  0.9965200  0.7715501    0.00000       Uiso       1.00
      C292          C  0.5003700  0.8505000  0.9577700    0.00000       Uiso       1.00
      C293          C  0.5161800  0.9060900  0.9951100    0.00000       Uiso       1.00
      C294          C  0.4796700  0.8609301  0.9828900    0.00000       Uiso       1.00
      C295          C  0.4874400  0.8884100  0.0015500    0.00000       Uiso       1.00
      C296          C  0.5290101  0.8681600  0.9513400    0.00000       Uiso       1.00
      C297          C  0.5367700  0.8957300  0.9697800    0.00000       Uiso       1.00
      H228          H  0.4684700  0.1905000  0.5568300    0.00000       Uiso       1.00
      H229          H  0.4574500  0.8476700  0.9882000    0.00000       Uiso       1.00
       F33          F  0.4667000  0.8975700  0.0256600    0.00000       Uiso       1.00
      H230          H  0.5454200  0.8607300  0.9320400    0.00000       Uiso       1.00
      H231          H  0.5590500  0.9087901  0.9642101    0.00000       Uiso       1.00
       N34          N  0.0116400  0.6905500  0.0829400    0.00000       Uiso       1.00
      C298          C  0.9916900  0.6787400  0.0613300    0.00000       Uiso       1.00
      C299          C  0.0054800  0.7195200  0.1030100    0.00000       Uiso       1.00
       B34          B  0.0256800  0.5630000  0.9842601    0.00000       Uiso       1.00
       O34          O  0.0441600  0.4940800  0.5543600    0.00000       Uiso       1.00
      C300          C  0.3751800  0.9642501  0.2253100    0.00000       Uiso       1.00
      H232          H  0.3906600  0.9422700  0.2290100    0.00000       Uiso       1.00
      H233          H  0.3600600  0.9597600  0.2032500    0.00000       Uiso       1.00
      H234          H  0.6847700  0.4965200  0.2715500    0.00000       Uiso       1.00
      C301          C  0.0003700  0.3505000  0.4577700    0.00000       Uiso       1.00
      C302          C  0.0161800  0.4060900  0.4951100    0.00000       Uiso       1.00
      C303          C  0.9796700  0.3609300  0.4828900    0.00000       Uiso       1.00
      C304          C  0.9874400  0.3884100  0.5015500    0.00000       Uiso       1.00
      C305          C  0.0290100  0.3681600  0.4513400    0.00000       Uiso       1.00
      C306          C  0.0367700  0.3957300  0.4697800    0.00000       Uiso       1.00
      H235          H  0.9684701  0.6905000  0.0568300    0.00000       Uiso       1.00
      H236          H  0.9574501  0.3476700  0.4882000    0.00000       Uiso       1.00
       F34          F  0.9667000  0.3975700  0.5256600    0.00000       Uiso       1.00
      H237          H  0.0454200  0.3607300  0.4320400    0.00000       Uiso       1.00
      H238          H  0.0590500  0.4087900  0.4642100    0.00000       Uiso       1.00
       N35          N  0.4883600  0.6905500  0.9170601    0.00000       Uiso       1.00
      C307          C  0.5083100  0.6787400  0.9386700    0.00000       Uiso       1.00
      C308          C  0.4945200  0.7195200  0.8969900    0.00000       Uiso       1.00
       B35          B  0.4743200  0.5630000  0.0157400    0.00000       Uiso       1.00
       O35          O  0.4558400  0.4940800  0.4456400    0.00000       Uiso       1.00
      C309          C  0.1248200  0.9642501  0.7746900    0.00000       Uiso       1.00
      H239          H  0.1093400  0.9422700  0.7709900    0.00000       Uiso       1.00
      H240          H  0.1399400  0.9597600  0.7967500    0.00000       Uiso       1.00
      H241          H  0.8152300  0.4965200  0.7284501    0.00000       Uiso       1.00
      C310          C  0.4996300  0.3505000  0.5422300    0.00000       Uiso       1.00
      C311          C  0.4838200  0.4060900  0.5048900    0.00000       Uiso       1.00
      C312          C  0.5203300  0.3609300  0.5171100    0.00000       Uiso       1.00
      C313          C  0.5125600  0.3884100  0.4984500    0.00000       Uiso       1.00
      C314          C  0.4709900  0.3681600  0.5486600    0.00000       Uiso       1.00
      C315          C  0.4632300  0.3957300  0.5302200    0.00000       Uiso       1.00
      H242          H  0.5315300  0.6905000  0.9431701    0.00000       Uiso       1.00
      H243          H  0.5425500  0.3476700  0.5118001    0.00000       Uiso       1.00
       F35          F  0.5333000  0.3975700  0.4743400    0.00000       Uiso       1.00
      H244          H  0.4545800  0.3607300  0.5679600    0.00000       Uiso       1.00
      H245          H  0.4409500  0.4087900  0.5357900    0.00000       Uiso       1.00
       N36          N  0.9883601  0.1905500  0.4170600    0.00000       Uiso       1.00
      C316          C  0.0083100  0.1787400  0.4386700    0.00000       Uiso       1.00
      C317          C  0.9945201  0.2195200  0.3969900    0.00000       Uiso       1.00
       B36          B  0.9743201  0.0630000  0.5157400    0.00000       Uiso       1.00
       O36          O  0.9558401  0.9940801  0.9456400    0.00000       Uiso       1.00
      C318          C  0.6248200  0.4642500  0.2746900    0.00000       Uiso       1.00
      H246          H  0.6093400  0.4422700  0.2709900    0.00000       Uiso       1.00
      H247          H  0.6399400  0.4597600  0.2967500    0.00000       Uiso       1.00
      H248          H  0.3152300  0.9965200  0.2284500    0.00000       Uiso       1.00
      C319          C  0.9996300  0.8505000  0.0422300    0.00000       Uiso       1.00
      C320          C  0.9838200  0.9060900  0.0048900    0.00000       Uiso       1.00
      C321          C  0.0203300  0.8609301  0.0171100    0.00000       Uiso       1.00
      C322          C  0.0125600  0.8884100  0.9984500    0.00000       Uiso       1.00
      C323          C  0.9709901  0.8681600  0.0486600    0.00000       Uiso       1.00
      C324          C  0.9632300  0.8957300  0.0302200    0.00000       Uiso       1.00
      H249          H  0.0315300  0.1905000  0.4431700    0.00000       Uiso       1.00
      H250          H  0.0425500  0.8476700  0.0118000    0.00000       Uiso       1.00
       F36          F  0.0333000  0.8975700  0.9743401    0.00000       Uiso       1.00
      H251          H  0.9545801  0.8607300  0.0679600    0.00000       Uiso       1.00
      H252          H  0.9409500  0.9087901  0.0357900    0.00000       Uiso       1.00
       N37          N  0.9883601  0.8094500  0.0829400    0.00000       Uiso       1.00
      C325          C  0.0083100  0.8212600  0.0613300    0.00000       Uiso       1.00
      C326          C  0.9945201  0.7804800  0.1030100    0.00000       Uiso       1.00
       B37          B  0.9743201  0.9370000  0.9842601    0.00000       Uiso       1.00
       O37          O  0.9558401  0.0059200  0.5543600    0.00000       Uiso       1.00
      C327          C  0.6248200  0.5357500  0.2253100    0.00000       Uiso       1.00
      H253          H  0.6093400  0.5577300  0.2290100    0.00000       Uiso       1.00
      H254          H  0.6399400  0.5402400  0.2032500    0.00000       Uiso       1.00
      H255          H  0.3152300  0.0034800  0.2715500    0.00000       Uiso       1.00
      C328          C  0.9996300  0.1495000  0.4577700    0.00000       Uiso       1.00
      C329          C  0.9838200  0.0939100  0.4951100    0.00000       Uiso       1.00
      C330          C  0.0203300  0.1390700  0.4828900    0.00000       Uiso       1.00
      C331          C  0.0125600  0.1115900  0.5015500    0.00000       Uiso       1.00
      C332          C  0.9709901  0.1318400  0.4513400    0.00000       Uiso       1.00
      C333          C  0.9632300  0.1042700  0.4697800    0.00000       Uiso       1.00
      H256          H  0.0315300  0.8095001  0.0568300    0.00000       Uiso       1.00
      H257          H  0.0425500  0.1523300  0.4882000    0.00000       Uiso       1.00
       F37          F  0.0333000  0.1024300  0.5256600    0.00000       Uiso       1.00
      H258          H  0.9545801  0.1392700  0.4320400    0.00000       Uiso       1.00
      H259          H  0.9409500  0.0912100  0.4642100    0.00000       Uiso       1.00
       N38          N  0.4883600  0.3094500  0.5829400    0.00000       Uiso       1.00
      C334          C  0.5083100  0.3212600  0.5613300    0.00000       Uiso       1.00
      C335          C  0.4945200  0.2804800  0.6030101    0.00000       Uiso       1.00
       B38          B  0.4743200  0.4370000  0.4842600    0.00000       Uiso       1.00
       O38          O  0.4558400  0.5059201  0.0543600    0.00000       Uiso       1.00
      C336          C  0.1248200  0.0357500  0.7253100    0.00000       Uiso       1.00
      H260          H  0.1093400  0.0577300  0.7290100    0.00000       Uiso       1.00
      H261          H  0.1399400  0.0402400  0.7032501    0.00000       Uiso       1.00
      H262          H  0.8152300  0.5034800  0.7715501    0.00000       Uiso       1.00
      C337          C  0.4996300  0.6495000  0.9577700    0.00000       Uiso       1.00
      C338          C  0.4838200  0.5939100  0.9951100    0.00000       Uiso       1.00
      C339          C  0.5203300  0.6390700  0.9828900    0.00000       Uiso       1.00
      C340          C  0.5125600  0.6115900  0.0015500    0.00000       Uiso       1.00
      C341          C  0.4709900  0.6318400  0.9513400    0.00000       Uiso       1.00
      C342          C  0.4632300  0.6042700  0.9697800    0.00000       Uiso       1.00
      H263          H  0.5315300  0.3095000  0.5568300    0.00000       Uiso       1.00
      H264          H  0.5425500  0.6523300  0.9882000    0.00000       Uiso       1.00
       F38          F  0.5333000  0.6024300  0.0256600    0.00000       Uiso       1.00
      H265          H  0.4545800  0.6392700  0.9320400    0.00000       Uiso       1.00
      H266          H  0.4409500  0.5912100  0.9642101    0.00000       Uiso       1.00
       N39          N  0.0116400  0.3094500  0.4170600    0.00000       Uiso       1.00
      C343          C  0.9916900  0.3212600  0.4386700    0.00000       Uiso       1.00
      C344          C  0.0054800  0.2804800  0.3969900    0.00000       Uiso       1.00
       B39          B  0.0256800  0.4370000  0.5157400    0.00000       Uiso       1.00
       O39          O  0.0441600  0.5059201  0.9456400    0.00000       Uiso       1.00
      C345          C  0.3751800  0.0357500  0.2746900    0.00000       Uiso       1.00
      H267          H  0.3906600  0.0577300  0.2709900    0.00000       Uiso       1.00
      H268          H  0.3600600  0.0402400  0.2967500    0.00000       Uiso       1.00
      H269          H  0.6847700  0.5034800  0.2284500    0.00000       Uiso       1.00
      C346          C  0.0003700  0.6495000  0.0422300    0.00000       Uiso       1.00
      C347          C  0.0161800  0.5939100  0.0048900    0.00000       Uiso       1.00
      C348          C  0.9796700  0.6390700  0.0171100    0.00000       Uiso       1.00
      C349          C  0.9874400  0.6115900  0.9984500    0.00000       Uiso       1.00
      C350          C  0.0290100  0.6318400  0.0486600    0.00000       Uiso       1.00
      C351          C  0.0367700  0.6042700  0.0302200    0.00000       Uiso       1.00
      H270          H  0.9684701  0.3095000  0.4431700    0.00000       Uiso       1.00
      H271          H  0.9574501  0.6523300  0.0118000    0.00000       Uiso       1.00
       F39          F  0.9667000  0.6024300  0.9743401    0.00000       Uiso       1.00
      H272          H  0.0454200  0.6392700  0.0679600    0.00000       Uiso       1.00
      H273          H  0.0590500  0.5912100  0.0357900    0.00000       Uiso       1.00
       N40          N  0.5116400  0.8094500  0.9170601    0.00000       Uiso       1.00
      C352          C  0.4916900  0.8212600  0.9386700    0.00000       Uiso       1.00
      C353          C  0.5054800  0.7804800  0.8969900    0.00000       Uiso       1.00
       B40          B  0.5256800  0.9370000  0.0157400    0.00000       Uiso       1.00
       O40          O  0.5441600  0.0059200  0.4456400    0.00000       Uiso       1.00
      C354          C  0.8751800  0.5357500  0.7746900    0.00000       Uiso       1.00
      H274          H  0.8906600  0.5577300  0.7709900    0.00000       Uiso       1.00
      H275          H  0.8600600  0.5402400  0.7967500    0.00000       Uiso       1.00
      H276          H  0.1847700  0.0034800  0.7284501    0.00000       Uiso       1.00
      C355          C  0.5003700  0.1495000  0.5422300    0.00000       Uiso       1.00
      C356          C  0.5161800  0.0939100  0.5048900    0.00000       Uiso       1.00
      C357          C  0.4796700  0.1390700  0.5171100    0.00000       Uiso       1.00
      C358          C  0.4874400  0.1115900  0.4984500    0.00000       Uiso       1.00
      C359          C  0.5290101  0.1318400  0.5486600    0.00000       Uiso       1.00
      C360          C  0.5367700  0.1042700  0.5302200    0.00000       Uiso       1.00
      H277          H  0.4684700  0.8095001  0.9431701    0.00000       Uiso       1.00
      H278          H  0.4574500  0.1523300  0.5118001    0.00000       Uiso       1.00
       F40          F  0.4667000  0.1024300  0.4743400    0.00000       Uiso       1.00
      H279          H  0.5454200  0.1392700  0.5679600    0.00000       Uiso       1.00
      H280          H  0.5590500  0.0912100  0.5357900    0.00000       Uiso       1.00
       N41          N  0.1905500  0.5829400  0.5116400    0.00000       Uiso       1.00
      C361          C  0.1787400  0.5613300  0.4916900    0.00000       Uiso       1.00
      C362          C  0.2195200  0.6030101  0.5054800    0.00000       Uiso       1.00
       B41          B  0.0630000  0.4842600  0.5256800    0.00000       Uiso       1.00
       O41          O  0.9940801  0.0543600  0.5441600    0.00000       Uiso       1.00
      C363          C  0.4642500  0.7253100  0.8751800    0.00000       Uiso       1.00
      H281          H  0.4422700  0.7290100  0.8906600    0.00000       Uiso       1.00
      H282          H  0.4597600  0.7032501  0.8600600    0.00000       Uiso       1.00
      H283          H  0.9965200  0.7715501  0.1847700    0.00000       Uiso       1.00
      C364          C  0.8505000  0.9577700  0.5003700    0.00000       Uiso       1.00
      C365          C  0.9060900  0.9951100  0.5161800    0.00000       Uiso       1.00
      C366          C  0.8609301  0.9828900  0.4796700    0.00000       Uiso       1.00
      C367          C  0.8884100  0.0015500  0.4874400    0.00000       Uiso       1.00
      C368          C  0.8681600  0.9513400  0.5290101    0.00000       Uiso       1.00
      C369          C  0.8957300  0.9697800  0.5367700    0.00000       Uiso       1.00
      H284          H  0.1905000  0.5568300  0.4684700    0.00000       Uiso       1.00
      H285          H  0.8476700  0.9882000  0.4574500    0.00000       Uiso       1.00
       F41          F  0.8975700  0.0256600  0.4667000    0.00000       Uiso       1.00
      H286          H  0.8607300  0.9320400  0.5454200    0.00000       Uiso       1.00
      H287          H  0.9087901  0.9642101  0.5590500    0.00000       Uiso       1.00
       N42          N  0.6905500  0.0829400  0.0116400    0.00000       Uiso       1.00
      C370          C  0.6787400  0.0613300  0.9916900    0.00000       Uiso       1.00
      C371          C  0.7195200  0.1030100  0.0054800    0.00000       Uiso       1.00
       B42          B  0.5630000  0.9842601  0.0256800    0.00000       Uiso       1.00
       O42          O  0.4940800  0.5543600  0.0441600    0.00000       Uiso       1.00
      C372          C  0.9642501  0.2253100  0.3751800    0.00000       Uiso       1.00
      H288          H  0.9422700  0.2290100  0.3906600    0.00000       Uiso       1.00
      H289          H  0.9597600  0.2032500  0.3600600    0.00000       Uiso       1.00
      H290          H  0.4965200  0.2715500  0.6847700    0.00000       Uiso       1.00
      C373          C  0.3505000  0.4577700  0.0003700    0.00000       Uiso       1.00
      C374          C  0.4060900  0.4951100  0.0161800    0.00000       Uiso       1.00
      C375          C  0.3609300  0.4828900  0.9796700    0.00000       Uiso       1.00
      C376          C  0.3884100  0.5015500  0.9874400    0.00000       Uiso       1.00
      C377          C  0.3681600  0.4513400  0.0290100    0.00000       Uiso       1.00
      C378          C  0.3957300  0.4697800  0.0367700    0.00000       Uiso       1.00
      H291          H  0.6905000  0.0568300  0.9684701    0.00000       Uiso       1.00
      H292          H  0.3476700  0.4882000  0.9574501    0.00000       Uiso       1.00
       F42          F  0.3975700  0.5256600  0.9667000    0.00000       Uiso       1.00
      H293          H  0.3607300  0.4320400  0.0454200    0.00000       Uiso       1.00
      H294          H  0.4087900  0.4642100  0.0590500    0.00000       Uiso       1.00
       N43          N  0.6905500  0.9170601  0.4883600    0.00000       Uiso       1.00
      C379          C  0.6787400  0.9386700  0.5083100    0.00000       Uiso       1.00
      C380          C  0.7195200  0.8969900  0.4945200    0.00000       Uiso       1.00
       B43          B  0.5630000  0.0157400  0.4743200    0.00000       Uiso       1.00
       O43          O  0.4940800  0.4456400  0.4558400    0.00000       Uiso       1.00
      C381          C  0.9642501  0.7746900  0.1248200    0.00000       Uiso       1.00
      H295          H  0.9422700  0.7709900  0.1093400    0.00000       Uiso       1.00
      H296          H  0.9597600  0.7967500  0.1399400    0.00000       Uiso       1.00
      H297          H  0.4965200  0.7284501  0.8152300    0.00000       Uiso       1.00
      C382          C  0.3505000  0.5422300  0.4996300    0.00000       Uiso       1.00
      C383          C  0.4060900  0.5048900  0.4838200    0.00000       Uiso       1.00
      C384          C  0.3609300  0.5171100  0.5203300    0.00000       Uiso       1.00
      C385          C  0.3884100  0.4984500  0.5125600    0.00000       Uiso       1.00
      C386          C  0.3681600  0.5486600  0.4709900    0.00000       Uiso       1.00
      C387          C  0.3957300  0.5302200  0.4632300    0.00000       Uiso       1.00
      H298          H  0.6905000  0.9431701  0.5315300    0.00000       Uiso       1.00
      H299          H  0.3476700  0.5118001  0.5425500    0.00000       Uiso       1.00
       F43          F  0.3975700  0.4743400  0.5333000    0.00000       Uiso       1.00
      H300          H  0.3607300  0.5679600  0.4545800    0.00000       Uiso       1.00
      H301          H  0.4087900  0.5357900  0.4409500    0.00000       Uiso       1.00
       N44          N  0.1905500  0.4170600  0.9883601    0.00000       Uiso       1.00
      C388          C  0.1787400  0.4386700  0.0083100    0.00000       Uiso       1.00
      C389          C  0.2195200  0.3969900  0.9945201    0.00000       Uiso       1.00
       B44          B  0.0630000  0.5157400  0.9743201    0.00000       Uiso       1.00
       O44          O  0.9940801  0.9456400  0.9558401    0.00000       Uiso       1.00
      C390          C  0.4642500  0.2746900  0.6248200    0.00000       Uiso       1.00
      H302          H  0.4422700  0.2709900  0.6093400    0.00000       Uiso       1.00
      H303          H  0.4597600  0.2967500  0.6399400    0.00000       Uiso       1.00
      H304          H  0.9965200  0.2284500  0.3152300    0.00000       Uiso       1.00
      C391          C  0.8505000  0.0422300  0.9996300    0.00000       Uiso       1.00
      C392          C  0.9060900  0.0048900  0.9838200    0.00000       Uiso       1.00
      C393          C  0.8609301  0.0171100  0.0203300    0.00000       Uiso       1.00
      C394          C  0.8884100  0.9984500  0.0125600    0.00000       Uiso       1.00
      C395          C  0.8681600  0.0486600  0.9709901    0.00000       Uiso       1.00
      C396          C  0.8957300  0.0302200  0.9632300    0.00000       Uiso       1.00
      H305          H  0.1905000  0.4431700  0.0315300    0.00000       Uiso       1.00
      H306          H  0.8476700  0.0118000  0.0425500    0.00000       Uiso       1.00
       F44          F  0.8975700  0.9743401  0.0333000    0.00000       Uiso       1.00
      H307          H  0.8607300  0.0679600  0.9545801    0.00000       Uiso       1.00
      H308          H  0.9087901  0.0357900  0.9409500    0.00000       Uiso       1.00
       N45          N  0.8094500  0.0829400  0.9883601    0.00000       Uiso       1.00
      C397          C  0.8212600  0.0613300  0.0083100    0.00000       Uiso       1.00
      C398          C  0.7804800  0.1030100  0.9945201    0.00000       Uiso       1.00
       B45          B  0.9370000  0.9842601  0.9743201    0.00000       Uiso       1.00
       O45          O  0.0059200  0.5543600  0.9558401    0.00000       Uiso       1.00
      C399          C  0.5357500  0.2253100  0.6248200    0.00000       Uiso       1.00
      H309          H  0.5577300  0.2290100  0.6093400    0.00000       Uiso       1.00
      H310          H  0.5402400  0.2032500  0.6399400    0.00000       Uiso       1.00
      H311          H  0.0034800  0.2715500  0.3152300    0.00000       Uiso       1.00
      C400          C  0.1495000  0.4577700  0.9996300    0.00000       Uiso       1.00
      C401          C  0.0939100  0.4951100  0.9838200    0.00000       Uiso       1.00
      C402          C  0.1390700  0.4828900  0.0203300    0.00000       Uiso       1.00
      C403          C  0.1115900  0.5015500  0.0125600    0.00000       Uiso       1.00
      C404          C  0.1318400  0.4513400  0.9709901    0.00000       Uiso       1.00
      C405          C  0.1042700  0.4697800  0.9632300    0.00000       Uiso       1.00
      H312          H  0.8095001  0.0568300  0.0315300    0.00000       Uiso       1.00
      H313          H  0.1523300  0.4882000  0.0425500    0.00000       Uiso       1.00
       F45          F  0.1024300  0.5256600  0.0333000    0.00000       Uiso       1.00
      H314          H  0.1392700  0.4320400  0.9545801    0.00000       Uiso       1.00
      H315          H  0.0912100  0.4642100  0.9409500    0.00000       Uiso       1.00
       N46          N  0.3094500  0.5829400  0.4883600    0.00000       Uiso       1.00
      C406          C  0.3212600  0.5613300  0.5083100    0.00000       Uiso       1.00
      C407          C  0.2804800  0.6030101  0.4945200    0.00000       Uiso       1.00
       B46          B  0.4370000  0.4842600  0.4743200    0.00000       Uiso       1.00
       O46          O  0.5059201  0.0543600  0.4558400    0.00000       Uiso       1.00
      C408          C  0.0357500  0.7253100  0.1248200    0.00000       Uiso       1.00
      H316          H  0.0577300  0.7290100  0.1093400    0.00000       Uiso       1.00
      H317          H  0.0402400  0.7032501  0.1399400    0.00000       Uiso       1.00
      H318          H  0.5034800  0.7715501  0.8152300    0.00000       Uiso       1.00
      C409          C  0.6495000  0.9577700  0.4996300    0.00000       Uiso       1.00
      C410          C  0.5939100  0.9951100  0.4838200    0.00000       Uiso       1.00
      C411          C  0.6390700  0.9828900  0.5203300    0.00000       Uiso       1.00
      C412          C  0.6115900  0.0015500  0.5125600    0.00000       Uiso       1.00
      C413          C  0.6318400  0.9513400  0.4709900    0.00000       Uiso       1.00
      C414          C  0.6042700  0.9697800  0.4632300    0.00000       Uiso       1.00
      H319          H  0.3095000  0.5568300  0.5315300    0.00000       Uiso       1.00
      H320          H  0.6523300  0.9882000  0.5425500    0.00000       Uiso       1.00
       F46          F  0.6024300  0.0256600  0.5333000    0.00000       Uiso       1.00
      H321          H  0.6392700  0.9320400  0.4545800    0.00000       Uiso       1.00
      H322          H  0.5912100  0.9642101  0.4409500    0.00000       Uiso       1.00
       N47          N  0.3094500  0.4170600  0.0116400    0.00000       Uiso       1.00
      C415          C  0.3212600  0.4386700  0.9916900    0.00000       Uiso       1.00
      C416          C  0.2804800  0.3969900  0.0054800    0.00000       Uiso       1.00
       B47          B  0.4370000  0.5157400  0.0256800    0.00000       Uiso       1.00
       O47          O  0.5059201  0.9456400  0.0441600    0.00000       Uiso       1.00
      C417          C  0.0357500  0.2746900  0.3751800    0.00000       Uiso       1.00
      H323          H  0.0577300  0.2709900  0.3906600    0.00000       Uiso       1.00
      H324          H  0.0402400  0.2967500  0.3600600    0.00000       Uiso       1.00
      H325          H  0.5034800  0.2284500  0.6847700    0.00000       Uiso       1.00
      C418          C  0.6495000  0.0422300  0.0003700    0.00000       Uiso       1.00
      C419          C  0.5939100  0.0048900  0.0161800    0.00000       Uiso       1.00
      C420          C  0.6390700  0.0171100  0.9796700    0.00000       Uiso       1.00
      C421          C  0.6115900  0.9984500  0.9874400    0.00000       Uiso       1.00
      C422          C  0.6318400  0.0486600  0.0290100    0.00000       Uiso       1.00
      C423          C  0.6042700  0.0302200  0.0367700    0.00000       Uiso       1.00
      H326          H  0.3095000  0.4431700  0.9684701    0.00000       Uiso       1.00
      H327          H  0.6523300  0.0118000  0.9574501    0.00000       Uiso       1.00
       F47          F  0.6024300  0.9743401  0.9667000    0.00000       Uiso       1.00
      H328          H  0.6392700  0.0679600  0.0454200    0.00000       Uiso       1.00
      H329          H  0.5912100  0.0357900  0.0590500    0.00000       Uiso       1.00
       N48          N  0.8094500  0.9170601  0.5116400    0.00000       Uiso       1.00
      C424          C  0.8212600  0.9386700  0.4916900    0.00000       Uiso       1.00
      C425          C  0.7804800  0.8969900  0.5054800    0.00000       Uiso       1.00
       B48          B  0.9370000  0.0157400  0.5256800    0.00000       Uiso       1.00
       O48          O  0.0059200  0.4456400  0.5441600    0.00000       Uiso       1.00
      C426          C  0.5357500  0.7746900  0.8751800    0.00000       Uiso       1.00
      H330          H  0.5577300  0.7709900  0.8906600    0.00000       Uiso       1.00
      H331          H  0.5402400  0.7967500  0.8600600    0.00000       Uiso       1.00
      H332          H  0.0034800  0.7284501  0.1847700    0.00000       Uiso       1.00
      C427          C  0.1495000  0.5422300  0.5003700    0.00000       Uiso       1.00
      C428          C  0.0939100  0.5048900  0.5161800    0.00000       Uiso       1.00
      C429          C  0.1390700  0.5171100  0.4796700    0.00000       Uiso       1.00
      C430          C  0.1115900  0.4984500  0.4874400    0.00000       Uiso       1.00
      C431          C  0.1318400  0.5486600  0.5290101    0.00000       Uiso       1.00
      C432          C  0.1042700  0.5302200  0.5367700    0.00000       Uiso       1.00
      H333          H  0.8095001  0.9431701  0.4684700    0.00000       Uiso       1.00
      H334          H  0.1523300  0.5118001  0.4574500    0.00000       Uiso       1.00
       F48          F  0.1024300  0.4743400  0.4667000    0.00000       Uiso       1.00
      H335          H  0.1392700  0.5679600  0.5454200    0.00000       Uiso       1.00
      H336          H  0.0912100  0.5357900  0.5590500    0.00000       Uiso       1.00
      C433          C  0.2500000  0.6687000  0.5000000    0.00000       Uiso       1.00
      C434          C  0.2500000  0.3313000  0.0000000    0.00000       Uiso       1.00
      C435          C  0.7500001  0.1687000  0.0000000    0.00000       Uiso       1.00
      C436          C  0.7500001  0.8313000  0.5000000    0.00000       Uiso       1.00
      C437          C  0.5000000  0.2500000  0.6687000    0.00000       Uiso       1.00
      C438          C  0.0000000  0.2500000  0.3313000    0.00000       Uiso       1.00
      C439          C  0.0000000  0.7500001  0.1687000    0.00000       Uiso       1.00
      C440          C  0.5000000  0.7500001  0.8313000    0.00000       Uiso       1.00
      C441          C  0.6687000  0.5000000  0.2500000    0.00000       Uiso       1.00
      C442          C  0.3313000  0.0000000  0.2500000    0.00000       Uiso       1.00
      C443          C  0.1687000  0.0000000  0.7500001    0.00000       Uiso       1.00
      C444          C  0.8313000  0.5000000  0.7500001    0.00000       Uiso       1.00
      C445          C  0.9187000  0.5000000  0.7500001    0.00000       Uiso       1.00
      C446          C  0.5813000  0.5000000  0.2500000    0.00000       Uiso       1.00
      C447          C  0.4187000  0.0000000  0.2500000    0.00000       Uiso       1.00
      C448          C  0.0813000  0.0000000  0.7500001    0.00000       Uiso       1.00
      C449          C  0.5000000  0.7500001  0.9187000    0.00000       Uiso       1.00
      C450          C  0.5000000  0.2500000  0.5813000    0.00000       Uiso       1.00
      C451          C  0.0000000  0.2500000  0.4187000    0.00000       Uiso       1.00
      C452          C  0.0000000  0.7500001  0.0813000    0.00000       Uiso       1.00
      C453          C  0.7500001  0.9187000  0.5000000    0.00000       Uiso       1.00
      C454          C  0.2500000  0.5813000  0.5000000    0.00000       Uiso       1.00
      C455          C  0.2500000  0.4187000  0.0000000    0.00000       Uiso       1.00
      C456          C  0.7500001  0.0813000  0.0000000    0.00000       Uiso       1.00
